
//      //

/home/ht45454/CFDEM/CFDEMcoupling-24.01-4.x/tutorials/cfdemSolverMultiphaseScalar/small_hearth/CFD

/*---------------------------------------------------------------------------*\
| =========                 |                                                 |
| \\      /  F ield         | OpenFOAM: The Open Source CFD Toolbox           |
|  \\    /   O peration     | Version:  4.x                                   |
|   \\  /    A nd           | Web:      www.OpenFOAM.org                      |
|    \\/     M anipulation  |                                                 |
\*---------------------------------------------------------------------------*/
Build  : 4.x-d214c8dfd5ba
Exec   : cfdemSolverMultiphaseScalar -parallel
Date   : Jan 18 2025
Time   : 09:50:11
Host   : "TUE035485"
PID    : 8975
Case   : /home/ht45454/CFDEM/CFDEMcoupling-24.01-4.x/tutorials/cfdemSolverMultiphaseScalar/small_hearth/CFD
nProcs : 8
Slaves : 
7
(
"TUE035485.8976"
"TUE035485.8977"
"TUE035485.8978"
"TUE035485.8979"
"TUE035485.8980"
"TUE035485.8981"
"TUE035485.8982"
)

Pstream initialized with:
    floatTransfer      : 0
    nProcsSimpleSum    : 0
    commsType          : nonBlocking
    polling iterations : 0
sigFpe : Enabling floating point exception trapping (FOAM_SIGFPE).
fileModificationChecking : Monitoring run-time modified files using timeStampMaster
allowSystemOperations : Allowing user-supplied system call operations

// * * * * * * * * * * * * * * * * * * * * * * * * * * * * * * * * * * * * * //
[0] 
[0] 
[0] --> FOAM FATAL ERROR: 
[0] cfdemSolverMultiphaseScalar: cannot open case directory "/home/ht45454/CFDEM/CFDEMcoupling-24.01-4.x/tutorials/cfdemSolverMultiphaseScalar/small_hearth/CFD/processor0"
[0] 
[0] 
FOAM parallel run exiting
[0] 
--------------------------------------------------------------------------
MPI_ABORT was invoked on rank 0 in communicator MPI_COMM_WORLD
with errorcode 1.

NOTE: invoking MPI_ABORT causes Open MPI to kill all MPI processes.
You may or may not see output from other processes, depending on
exactly when Open MPI kills them.
--------------------------------------------------------------------------

//      //

/home/ht45454/CFDEM/CFDEMcoupling-24.01-4.x/tutorials/cfdemSolverMultiphaseScalar/small_hearth/CFD

/*---------------------------------------------------------------------------*\
| =========                 |                                                 |
| \\      /  F ield         | OpenFOAM: The Open Source CFD Toolbox           |
|  \\    /   O peration     | Version:  4.x                                   |
|   \\  /    A nd           | Web:      www.OpenFOAM.org                      |
|    \\/     M anipulation  |                                                 |
\*---------------------------------------------------------------------------*/
Build  : 4.x-d214c8dfd5ba
Exec   : cfdemSolverMultiphaseScalar -parallel
Date   : Jan 18 2025
Time   : 09:50:37
Host   : "TUE035485"
PID    : 9052
Case   : /home/ht45454/CFDEM/CFDEMcoupling-24.01-4.x/tutorials/cfdemSolverMultiphaseScalar/small_hearth/CFD
nProcs : 8
Slaves : 
7
(
"TUE035485.9053"
"TUE035485.9054"
"TUE035485.9055"
"TUE035485.9056"
"TUE035485.9057"
"TUE035485.9058"
"TUE035485.9059"
)

Pstream initialized with:
    floatTransfer      : 0
    nProcsSimpleSum    : 0
    commsType          : nonBlocking
    polling iterations : 0
sigFpe : Enabling floating point exception trapping (FOAM_SIGFPE).
fileModificationChecking : Monitoring run-time modified files using timeStampMaster
allowSystemOperations : Allowing user-supplied system call operations

// * * * * * * * * * * * * * * * * * * * * * * * * * * * * * * * * * * * * * //
Create time

Create mesh for time = 0


PIMPLE: Operating solver in PISO mode


Reading momentum exchange field Ksl


Reading voidfraction field voidfraction = (Vgas/Vparticle)

Reading particle velocity field Us

Reading field p_rgh

Reading field U

Reading/calculating face flux field phi

Selecting incompressible transport model Newtonian
Selecting incompressible transport model Newtonian
Reading/creating thermal fields

Reading/creating concentration fields

Selecting turbulence model type laminar

Reading g

Reading hRef
Calculating field g.h

No finite volume options present

GAMGPCG:  Solving for pcorr, Initial residual = 0, Final residual = 0, No Iterations 0
GAMGPCG:  Solving for pcorr, Initial residual = 0, Final residual = 0, No Iterations 0
time step continuity errors : sum local = 0, global = 0, cumulative = 0
Courant Number mean: 0 max: 0
Selecting dataExchangeModel twoWayMPI
Starting up LIGGGHTS for first time execution
Executing input script '../DEM/in.liggghts_run'
LIGGGHTS (Version LIGGGHTS-PFM 24.01, compiled 2025-01-17-18:01:04 by ht45454, git commit d075b97762ce4302707903718dda170920e630bd, based on LAMMPS 23 Nov 2013)
log             ../log/log.liggghts_run
thermo_log      ../log/thermo.txt

atom_style      granular
atom_modify     map array
boundary        f f f
newton          off

communicate     single vel yes

units           si
processors      2 2 2

# read the restart file
read_restart    ../DEM/post/restart/liggghts.restartSequence
Reading restart file ...
ERROR on proc 0: Cannot open restart file ../DEM/post/restart/liggghts.restartSequence (/home/ht45454/CFDEM/LIGGGHTS/src/read_restart.cpp:115)
--------------------------------------------------------------------------
MPI_ABORT was invoked on rank 0 in communicator MPI COMMUNICATOR 3 DUP FROM 0
with errorcode 1.

NOTE: invoking MPI_ABORT causes Open MPI to kill all MPI processes.
You may or may not see output from other processes, depending on
exactly when Open MPI kills them.
--------------------------------------------------------------------------

//      //

/home/ht45454/CFDEM/CFDEMcoupling-24.01-4.x/tutorials/cfdemSolverMultiphaseScalar/small_hearth/CFD

/*---------------------------------------------------------------------------*\
| =========                 |                                                 |
| \\      /  F ield         | OpenFOAM: The Open Source CFD Toolbox           |
|  \\    /   O peration     | Version:  4.x                                   |
|   \\  /    A nd           | Web:      www.OpenFOAM.org                      |
|    \\/     M anipulation  |                                                 |
\*---------------------------------------------------------------------------*/
Build  : 4.x-d214c8dfd5ba
Exec   : cfdemSolverMultiphaseScalar -parallel
Date   : Jan 18 2025
Time   : 09:51:42
Host   : "TUE035485"
PID    : 9126
Case   : /home/ht45454/CFDEM/CFDEMcoupling-24.01-4.x/tutorials/cfdemSolverMultiphaseScalar/small_hearth/CFD
nProcs : 8
Slaves : 
7
(
"TUE035485.9127"
"TUE035485.9128"
"TUE035485.9129"
"TUE035485.9130"
"TUE035485.9131"
"TUE035485.9132"
"TUE035485.9133"
)

Pstream initialized with:
    floatTransfer      : 0
    nProcsSimpleSum    : 0
    commsType          : nonBlocking
    polling iterations : 0
sigFpe : Enabling floating point exception trapping (FOAM_SIGFPE).
fileModificationChecking : Monitoring run-time modified files using timeStampMaster
allowSystemOperations : Allowing user-supplied system call operations

// * * * * * * * * * * * * * * * * * * * * * * * * * * * * * * * * * * * * * //
Create time

Create mesh for time = 0


PIMPLE: Operating solver in PISO mode


Reading momentum exchange field Ksl


Reading voidfraction field voidfraction = (Vgas/Vparticle)

Reading particle velocity field Us

Reading field p_rgh

Reading field U

Reading/calculating face flux field phi

Selecting incompressible transport model Newtonian
Selecting incompressible transport model Newtonian
Reading/creating thermal fields

Reading/creating concentration fields

Selecting turbulence model type laminar

Reading g

Reading hRef
Calculating field g.h

No finite volume options present

GAMGPCG:  Solving for pcorr, Initial residual = 0, Final residual = 0, No Iterations 0
GAMGPCG:  Solving for pcorr, Initial residual = 0, Final residual = 0, No Iterations 0
time step continuity errors : sum local = 0, global = 0, cumulative = 0
Courant Number mean: 0 max: 0
Selecting dataExchangeModel twoWayMPI
Starting up LIGGGHTS for first time execution
Executing input script '../DEM/in.liggghts_run'
LIGGGHTS (Version LIGGGHTS-PFM 24.01, compiled 2025-01-17-18:01:04 by ht45454, git commit d075b97762ce4302707903718dda170920e630bd, based on LAMMPS 23 Nov 2013)
log             ../log/log.liggghts_run
thermo_log      ../log/thermo.txt

atom_style      granular
atom_modify     map array
boundary        f f f
newton          off

communicate     single vel yes

units           si
processors      2 2 2

# read the restart file
read_restart    ../DEM/post/restart/liggghts.restartSequence
Reading restart file ...
  orthogonal box = (-0.5 -0.5 -0.0025) to (0.5 0.5 1)
  2 by 2 by 2 MPI processor grid
SURFACE/DEFAULT loaded
HERTZ loaded
TANGENTIAL/HISTORY loaded
EPSD loaded
  80888 atoms

neighbor        0.007 bin
neigh_modify    delay 0

# contact model
include         ../DEM/in.contact_settings
# Material properties required for granular pair styles
fix             m1 all property/global youngsModulus	                peratomtype       5.e6
fix             m2 all property/global poissonsRatio 	                peratomtype	  0.3
fix             m3 all property/global coefficientRestitution           peratomtypepair 1 0.3
fix             m4 all property/global coefficientFriction 	        peratomtypepair 1 0.5
fix             m5 all property/global coefficientRollingFriction       peratomtypepair 1 0.2
fix             m6 all property/global coefficientRollingViscousDamping peratomtypepair 1 0.3

# pair style
pair_style	gran model hertz tangential history rolling_friction epsd
SURFACE/DEFAULT loaded
HERTZ loaded
TANGENTIAL/HISTORY loaded
EPSD loaded
pair_coeff  	* *

# hearth settings
include         ../DEM/in.hearth_settings
# hearth settings
variable        hearthRadius  equal 0.5     # hearth radius (m)
variable        coreRadius    equal 0.15    # radius of core region (m)
variable        liquidLevel   equal 0.4     # initial liquid level (m) [set in setFieldsDict as well!]
variable        liquidDensity equal 6700.   # liquid density (kg/m3)

# heat/mass transfer settings
variable        particlekInit equal 5000    # particle thermal conductivity during init (W/Km)
variable        particlekRun  equal 40.0    # particle thermal conductivity during run  (W/Km) [sped up! 2.0*20!]
variable        particleCp    equal 870     # particle heat capacity (J/kgK)
variable        Tinlet        equal 1823.15 # particle inlet temperature (K) [set in CFD as well!]
variable        Tinit         equal 1623.15 # initial temperature (K) [set in CFD as well!]
variable        Twall         equal 1423.15 # wall temperature (K) [set in CFD as well!]
variable        rRemove       equal 0.001   # radius at which dissolved particles are removed (m)

# zone definitions
variable        forceZmin     equal 0.70    # lower boundary of force zone (m)
variable        forceZmax     equal 0.80    # upper boundary of force zone (m)
variable        insZmin       equal 0.70    # lower boundary of insertion zone (m)
variable        insZmax       equal 0.80    # upper boundary of insertion zone (m)

region          bedReg        cylinder z 0 0 ${hearthRadius} 0            ${insZmax}
region          bedReg        cylinder z 0 0 0.5 0            ${insZmax}
region          bedReg        cylinder z 0 0 0.5 0            0.8
region          coreReg       cylinder z 0 0 ${coreRadius}   0            ${insZmax} side in
region          coreReg       cylinder z 0 0 0.15   0            ${insZmax} side in
region          coreReg       cylinder z 0 0 0.15   0            0.8 side in
region          invCoreReg    cylinder z 0 0 ${coreRadius}   0            ${insZmax} side out
region          invCoreReg    cylinder z 0 0 0.15   0            ${insZmax} side out
region          invCoreReg    cylinder z 0 0 0.15   0            0.8 side out
region          shellReg      intersect 2 bedReg invCoreReg

region		insReg        cylinder z 0 0 ${hearthRadius} ${insZmin}   ${insZmax}
region		insReg        cylinder z 0 0 0.5 ${insZmin}   ${insZmax}
region		insReg        cylinder z 0 0 0.5 0.7   ${insZmax}
region		insReg        cylinder z 0 0 0.5 0.7   0.8
region          insCoreReg    intersect 2 insReg coreReg
region          insShellReg   intersect 2 insReg invCoreReg

region		forceReg      cylinder z 0 0 ${hearthRadius} ${forceZmin} ${forceZmax}
region		forceReg      cylinder z 0 0 0.5 ${forceZmin} ${forceZmax}
region		forceReg      cylinder z 0 0 0.5 0.7 ${forceZmax}
region		forceReg      cylinder z 0 0 0.5 0.7 0.8
region          freeboard     cylinder z 0 0 ${hearthRadius} ${insZmax} INF
region          freeboard     cylinder z 0 0 0.5 ${insZmax} INF
region          freeboard     cylinder z 0 0 0.5 0.8 INF

region          mushroom      block 0.4 0.5 -0.05 0.05 0.2 0.3 side out # mushroom cutout
region          initReg       intersect 2 bedReg mushroom # entire bed minus mushroom
region          initCoreReg   intersect 2 initReg coreReg
region          initShellReg  intersect 2 initReg invCoreReg

# total burden weight
variable        pressureMin   equal 2000    # lower pressure value (Pa), near wall
variable        pressureMax   equal 20000   # upper pressure value (Pa), near core

# kinetic energy
variable        kinEn         equal ke      # kinetic energy (J)
variable        kinEnMax      equal 2.      # kinetic energy threshold for init (J)

# coke removal settings
variable        cokeRateInit  equal 20.     # coke combustion rate during init (kg/s)
variable        cokeRateRun   equal 1.      # coke combustion rate during run (kg/s)
variable        delInt        equal 0.1     # removal interval (s) [set in liggghtsCommands as well!]

variable        nFreeboard    equal count(all,freeboard)

variable        nRaceways     equal count(all,raceways)
variable        mRaceways     equal mass(all,raceways)
variable        avMass        equal "v_mRaceways/(v_nRaceways+1e-3)"

variable        delIntSteps   equal "floor(v_delInt/dt)"

variable        nDelInit      equal "v_delIntSteps*dt*v_cokeRateInit/v_avMass"
variable        fDelInit      equal "v_nDelInit/(v_nRaceways+1e-3)"

variable        nDelRun       equal "v_delIntSteps*dt*v_cokeRateRun/v_avMass"
variable        fDelRun       equal "v_nDelRun/(v_nRaceways+1e-3)"




# timestep
timestep        1e-4

# cfd coupling
fix             cfd all couple/cfd couple_every 100 mpi
nevery as specified in LIGGGHTS is overriden by calling external program (/home/ht45454/CFDEM/LIGGGHTS/src/cfd_datacoupling_mpi.cpp:56)
fix             cfd2 all couple/cfd/force/implicit

# heat transfer
fix             m7 all property/global thermalConductivity peratomtype ${particlekRun} # lambda in [W/(K*m)]
fix             m7 all property/global thermalConductivity peratomtype 40 
fix             m8 all property/global thermalCapacity     peratomtype ${particleCp}   # cp in [J/(kg*K)]
fix             m8 all property/global thermalCapacity     peratomtype 870   
fix             heattransfer all heat/gran/conduction initial_temperature ${Tinlet}
fix             heattransfer all heat/gran/conduction initial_temperature 1823.15
Resetting global state of Fix Temp Style property/atom from restart file info
Resetting per-atom state of Fix Temp Style property/atom from restart file info
Resetting global state of Fix heatFlux Style property/atom from restart file info
Resetting per-atom state of Fix heatFlux Style property/atom from restart file info
Resetting global state of Fix heatSource Style property/atom from restart file info
Resetting per-atom state of Fix heatSource Style property/atom from restart file info
fix             cfd3 all couple/cfd/convection T0 ${Tinlet}
fix             cfd3 all couple/cfd/convection T0 1823.15

# mass transfer
fix             cfd4 all couple/cfd/dissolve rmin ${rRemove}
fix             cfd4 all couple/cfd/dissolve rmin 0.001

# walls
include         ../DEM/in.wall_settings
fix		sides     all mesh/surface file ../DEM/mesh/small_hearth_sides.stl       type 1 temperature ${Twall} curvature 1e-5
fix		sides     all mesh/surface file ../DEM/mesh/small_hearth_sides.stl       type 1 temperature 1423.15 curvature 1e-5
Resetting global state of Fix sides Style mesh/surface from restart file info
fix 		bottom    all mesh/surface file ../DEM/mesh/small_hearth_bottom.stl      type 1 temperature ${Twall}
fix 		bottom    all mesh/surface file ../DEM/mesh/small_hearth_bottom.stl      type 1 temperature 1423.15
Resetting global state of Fix bottom Style mesh/surface from restart file info
fix		granwalls all wall/gran model hertz tangential history rolling_friction epsd mesh n_meshes 2 meshes sides bottom temperature ${Twall}
fix		granwalls all wall/gran model hertz tangential history rolling_friction epsd mesh n_meshes 2 meshes sides bottom temperature 1423.15
SURFACE/DEFAULT loaded
HERTZ loaded
TANGENTIAL/HISTORY loaded
EPSD loaded
Resetting global state of Fix n_neighs_mesh_sides Style property/atom from restart file info
Resetting per-atom state of Fix n_neighs_mesh_sides Style property/atom from restart file info
Resetting global state of Fix tracker_sides Style contacthistory/mesh from restart file info
Resetting per-atom state of Fix tracker_sides Style contacthistory/mesh from restart file info
Resetting global state of Fix n_neighs_mesh_bottom Style property/atom from restart file info
Resetting per-atom state of Fix n_neighs_mesh_bottom Style property/atom from restart file info
Resetting global state of Fix tracker_bottom Style contacthistory/mesh from restart file info
Resetting per-atom state of Fix tracker_bottom Style contacthistory/mesh from restart file info

# gravity
fix		gravi all gravity 9.81 vector 0.0 0.0 -1.0

######################################

# particle distribution
include	   	../DEM/in.particleSizeDistribution1
# Particle size distribution for LIGGGHTS

# mean radius = 0.0100000 m
# standard deviation = 0.00000 m
# density = 900 kg/m3

fix	pts1 all particletemplate/sphere 10007 atom_type 1 density constant 900 radius constant 0.01
Resetting global state of Fix pts1 Style particletemplate/sphere from restart file info

fix	pdd1 all particledistribution/discrete 10009 1 pts1 1.000000
Fix particledistribution/discrete (id pdd1): distribution based on mass%:
    pts1: d=2.000000e-02 (max. bounding sphere) mass%=100.000000%
Fix particledistribution/discrete (id pdd1): distribution based on number%:
    pts1: d=2.000000e-02 (max. bounding sphere) number%=100.000000%
Resetting global state of Fix pdd1 Style particledistribution/discrete from restart file info
include	   	../DEM/in.particleSizeDistribution2
# Particle size distribution for LIGGGHTS

# mean radius = 0.0125000 m
# standard deviation = 0.00000 m
# density = 900 kg/m3

fix	pts2 all particletemplate/sphere 10037 atom_type 1 density constant 900 radius constant 0.0125
Resetting global state of Fix pts2 Style particletemplate/sphere from restart file info

fix	pdd2 all particledistribution/discrete 10039 1 pts2 1.000000
Fix particledistribution/discrete (id pdd2): distribution based on mass%:
    pts2: d=2.500000e-02 (max. bounding sphere) mass%=100.000000%
Fix particledistribution/discrete (id pdd2): distribution based on number%:
    pts2: d=2.500000e-02 (max. bounding sphere) number%=100.000000%
Resetting global state of Fix pdd2 Style particledistribution/discrete from restart file info

# raceways
include		../DEM/in.raceways
# Raceway definition for LIGGGHTS

# reactor radius = 0.500000 m
# raceway height = 0.500000 m
# raceway diameter = 0.100000 m
# raceway length = 0.100000 m
# number of raceways = 8

variable angle1 equal 0.000000
region raceway1 cylinder x 0.000000 0.500000 0.050000 0.400000 0.500000 rotate v_angle1 0 0 0 0 0 1
variable angle2 equal 0.785398
region raceway2 cylinder x 0.000000 0.500000 0.050000 0.400000 0.500000 rotate v_angle2 0 0 0 0 0 1
variable angle3 equal 1.570796
region raceway3 cylinder x 0.000000 0.500000 0.050000 0.400000 0.500000 rotate v_angle3 0 0 0 0 0 1
variable angle4 equal 2.356194
region raceway4 cylinder x 0.000000 0.500000 0.050000 0.400000 0.500000 rotate v_angle4 0 0 0 0 0 1
variable angle5 equal 3.141593
region raceway5 cylinder x 0.000000 0.500000 0.050000 0.400000 0.500000 rotate v_angle5 0 0 0 0 0 1
variable angle6 equal 3.926991
region raceway6 cylinder x 0.000000 0.500000 0.050000 0.400000 0.500000 rotate v_angle6 0 0 0 0 0 1
variable angle7 equal 4.712389
region raceway7 cylinder x 0.000000 0.500000 0.050000 0.400000 0.500000 rotate v_angle7 0 0 0 0 0 1
variable angle8 equal 5.497787
region raceway8 cylinder x 0.000000 0.500000 0.050000 0.400000 0.500000 rotate v_angle8 0 0 0 0 0 1

region raceways union 8 raceway1 raceway2 raceway3 raceway4 raceway5 raceway6 raceway7 raceway8

# burden weight
include         ../DEM/in.pressure_profile
# Pressure profile definition for LIGGGHTS

# reactor radius = 0.500000 m
# R1 = 0.150000 m
# R2 = 0.400000 m
# number of bins = 12

# Region01
region   forceReg01		 cylinder z 0 0 0.15	${forceZmin} ${forceZmax} side in  	# center region
region   forceReg01		 cylinder z 0 0 0.15	0.7 ${forceZmax} side in  	
region   forceReg01		 cylinder z 0 0 0.15	0.7 0.8 side in  	
variable nForceReg01	 equal count(all,forceReg01) 								# number of particles inside
variable forceRegArea01	 equal 0.070686												# ring area (m2)
variable forceFact01	 equal 1												# force factor [0-1] (-)
variable totalForce01	 equal "-(v_forceFact01*(v_pressureMax-v_pressureMin)+v_pressureMin)*v_forceRegArea01"	# total force (N)
variable forcePerPart01	 equal "v_totalForce01/(v_nForceReg01+1e-3)"				# force per particle (N)
fix      force01		 all addforce 0 0 v_forcePerPart01 region forceReg01		# apply force

# Region02
region   forceRegIn02	 cylinder z 0 0 0.15	${forceZmin} ${forceZmax} side out 	# inner region
region   forceRegIn02	 cylinder z 0 0 0.15	0.7 ${forceZmax} side out 	
region   forceRegIn02	 cylinder z 0 0 0.15	0.7 0.8 side out 	
region   forceRegOut02	 cylinder z 0 0 0.17083	${forceZmin} ${forceZmax} side in  	# outer region
region   forceRegOut02	 cylinder z 0 0 0.17083	0.7 ${forceZmax} side in  	
region   forceRegOut02	 cylinder z 0 0 0.17083	0.7 0.8 side in  	
region   forceReg02		 intersect 2 forceRegIn02 forceRegOut02						# annular region
variable nForceReg02	 equal count(all,forceReg02) 								# number of particles inside
variable forceRegArea02	 equal 0.020998												# ring area (m2)
variable forceFact02	 equal 0.95833												# force factor [0-1] (-)
variable totalForce02	 equal "-(v_forceFact02*(v_pressureMax-v_pressureMin)+v_pressureMin)*v_forceRegArea02"	# total force (N)
variable forcePerPart02	 equal "v_totalForce02/(v_nForceReg02+1e-3)"				# force per particle (N)
fix      force02		 all addforce 0 0 v_forcePerPart02 region forceReg02		# apply force

# Region03
region   forceRegIn03	 cylinder z 0 0 0.17083	${forceZmin} ${forceZmax} side out 	# inner region
region   forceRegIn03	 cylinder z 0 0 0.17083	0.7 ${forceZmax} side out 	
region   forceRegIn03	 cylinder z 0 0 0.17083	0.7 0.8 side out 	
region   forceRegOut03	 cylinder z 0 0 0.19167	${forceZmin} ${forceZmax} side in  	# outer region
region   forceRegOut03	 cylinder z 0 0 0.19167	0.7 ${forceZmax} side in  	
region   forceRegOut03	 cylinder z 0 0 0.19167	0.7 0.8 side in  	
region   forceReg03		 intersect 2 forceRegIn03 forceRegOut03						# annular region
variable nForceReg03	 equal count(all,forceReg03) 								# number of particles inside
variable forceRegArea03	 equal 0.023726												# ring area (m2)
variable forceFact03	 equal 0.875												# force factor [0-1] (-)
variable totalForce03	 equal "-(v_forceFact03*(v_pressureMax-v_pressureMin)+v_pressureMin)*v_forceRegArea03"	# total force (N)
variable forcePerPart03	 equal "v_totalForce03/(v_nForceReg03+1e-3)"				# force per particle (N)
fix      force03		 all addforce 0 0 v_forcePerPart03 region forceReg03		# apply force

# Region04
region   forceRegIn04	 cylinder z 0 0 0.19167	${forceZmin} ${forceZmax} side out 	# inner region
region   forceRegIn04	 cylinder z 0 0 0.19167	0.7 ${forceZmax} side out 	
region   forceRegIn04	 cylinder z 0 0 0.19167	0.7 0.8 side out 	
region   forceRegOut04	 cylinder z 0 0 0.2125	${forceZmin} ${forceZmax} side in  	# outer region
region   forceRegOut04	 cylinder z 0 0 0.2125	0.7 ${forceZmax} side in  	
region   forceRegOut04	 cylinder z 0 0 0.2125	0.7 0.8 side in  	
region   forceReg04		 intersect 2 forceRegIn04 forceRegOut04						# annular region
variable nForceReg04	 equal count(all,forceReg04) 								# number of particles inside
variable forceRegArea04	 equal 0.026453												# ring area (m2)
variable forceFact04	 equal 0.79167												# force factor [0-1] (-)
variable totalForce04	 equal "-(v_forceFact04*(v_pressureMax-v_pressureMin)+v_pressureMin)*v_forceRegArea04"	# total force (N)
variable forcePerPart04	 equal "v_totalForce04/(v_nForceReg04+1e-3)"				# force per particle (N)
fix      force04		 all addforce 0 0 v_forcePerPart04 region forceReg04		# apply force

# Region05
region   forceRegIn05	 cylinder z 0 0 0.2125	${forceZmin} ${forceZmax} side out 	# inner region
region   forceRegIn05	 cylinder z 0 0 0.2125	0.7 ${forceZmax} side out 	
region   forceRegIn05	 cylinder z 0 0 0.2125	0.7 0.8 side out 	
region   forceRegOut05	 cylinder z 0 0 0.23333	${forceZmin} ${forceZmax} side in  	# outer region
region   forceRegOut05	 cylinder z 0 0 0.23333	0.7 ${forceZmax} side in  	
region   forceRegOut05	 cylinder z 0 0 0.23333	0.7 0.8 side in  	
region   forceReg05		 intersect 2 forceRegIn05 forceRegOut05						# annular region
variable nForceReg05	 equal count(all,forceReg05) 								# number of particles inside
variable forceRegArea05	 equal 0.02918												# ring area (m2)
variable forceFact05	 equal 0.70833												# force factor [0-1] (-)
variable totalForce05	 equal "-(v_forceFact05*(v_pressureMax-v_pressureMin)+v_pressureMin)*v_forceRegArea05"	# total force (N)
variable forcePerPart05	 equal "v_totalForce05/(v_nForceReg05+1e-3)"				# force per particle (N)
fix      force05		 all addforce 0 0 v_forcePerPart05 region forceReg05		# apply force

# Region06
region   forceRegIn06	 cylinder z 0 0 0.23333	${forceZmin} ${forceZmax} side out 	# inner region
region   forceRegIn06	 cylinder z 0 0 0.23333	0.7 ${forceZmax} side out 	
region   forceRegIn06	 cylinder z 0 0 0.23333	0.7 0.8 side out 	
region   forceRegOut06	 cylinder z 0 0 0.25417	${forceZmin} ${forceZmax} side in  	# outer region
region   forceRegOut06	 cylinder z 0 0 0.25417	0.7 ${forceZmax} side in  	
region   forceRegOut06	 cylinder z 0 0 0.25417	0.7 0.8 side in  	
region   forceReg06		 intersect 2 forceRegIn06 forceRegOut06						# annular region
variable nForceReg06	 equal count(all,forceReg06) 								# number of particles inside
variable forceRegArea06	 equal 0.031907												# ring area (m2)
variable forceFact06	 equal 0.625												# force factor [0-1] (-)
variable totalForce06	 equal "-(v_forceFact06*(v_pressureMax-v_pressureMin)+v_pressureMin)*v_forceRegArea06"	# total force (N)
variable forcePerPart06	 equal "v_totalForce06/(v_nForceReg06+1e-3)"				# force per particle (N)
fix      force06		 all addforce 0 0 v_forcePerPart06 region forceReg06		# apply force

# Region07
region   forceRegIn07	 cylinder z 0 0 0.25417	${forceZmin} ${forceZmax} side out 	# inner region
region   forceRegIn07	 cylinder z 0 0 0.25417	0.7 ${forceZmax} side out 	
region   forceRegIn07	 cylinder z 0 0 0.25417	0.7 0.8 side out 	
region   forceRegOut07	 cylinder z 0 0 0.275	${forceZmin} ${forceZmax} side in  	# outer region
region   forceRegOut07	 cylinder z 0 0 0.275	0.7 ${forceZmax} side in  	
region   forceRegOut07	 cylinder z 0 0 0.275	0.7 0.8 side in  	
region   forceReg07		 intersect 2 forceRegIn07 forceRegOut07						# annular region
variable nForceReg07	 equal count(all,forceReg07) 								# number of particles inside
variable forceRegArea07	 equal 0.034634												# ring area (m2)
variable forceFact07	 equal 0.54167												# force factor [0-1] (-)
variable totalForce07	 equal "-(v_forceFact07*(v_pressureMax-v_pressureMin)+v_pressureMin)*v_forceRegArea07"	# total force (N)
variable forcePerPart07	 equal "v_totalForce07/(v_nForceReg07+1e-3)"				# force per particle (N)
fix      force07		 all addforce 0 0 v_forcePerPart07 region forceReg07		# apply force

# Region08
region   forceRegIn08	 cylinder z 0 0 0.275	${forceZmin} ${forceZmax} side out 	# inner region
region   forceRegIn08	 cylinder z 0 0 0.275	0.7 ${forceZmax} side out 	
region   forceRegIn08	 cylinder z 0 0 0.275	0.7 0.8 side out 	
region   forceRegOut08	 cylinder z 0 0 0.29583	${forceZmin} ${forceZmax} side in  	# outer region
region   forceRegOut08	 cylinder z 0 0 0.29583	0.7 ${forceZmax} side in  	
region   forceRegOut08	 cylinder z 0 0 0.29583	0.7 0.8 side in  	
region   forceReg08		 intersect 2 forceRegIn08 forceRegOut08						# annular region
variable nForceReg08	 equal count(all,forceReg08) 								# number of particles inside
variable forceRegArea08	 equal 0.037361												# ring area (m2)
variable forceFact08	 equal 0.45833												# force factor [0-1] (-)
variable totalForce08	 equal "-(v_forceFact08*(v_pressureMax-v_pressureMin)+v_pressureMin)*v_forceRegArea08"	# total force (N)
variable forcePerPart08	 equal "v_totalForce08/(v_nForceReg08+1e-3)"				# force per particle (N)
fix      force08		 all addforce 0 0 v_forcePerPart08 region forceReg08		# apply force

# Region09
region   forceRegIn09	 cylinder z 0 0 0.29583	${forceZmin} ${forceZmax} side out 	# inner region
region   forceRegIn09	 cylinder z 0 0 0.29583	0.7 ${forceZmax} side out 	
region   forceRegIn09	 cylinder z 0 0 0.29583	0.7 0.8 side out 	
region   forceRegOut09	 cylinder z 0 0 0.31667	${forceZmin} ${forceZmax} side in  	# outer region
region   forceRegOut09	 cylinder z 0 0 0.31667	0.7 ${forceZmax} side in  	
region   forceRegOut09	 cylinder z 0 0 0.31667	0.7 0.8 side in  	
region   forceReg09		 intersect 2 forceRegIn09 forceRegOut09						# annular region
variable nForceReg09	 equal count(all,forceReg09) 								# number of particles inside
variable forceRegArea09	 equal 0.040088												# ring area (m2)
variable forceFact09	 equal 0.375												# force factor [0-1] (-)
variable totalForce09	 equal "-(v_forceFact09*(v_pressureMax-v_pressureMin)+v_pressureMin)*v_forceRegArea09"	# total force (N)
variable forcePerPart09	 equal "v_totalForce09/(v_nForceReg09+1e-3)"				# force per particle (N)
fix      force09		 all addforce 0 0 v_forcePerPart09 region forceReg09		# apply force

# Region10
region   forceRegIn10	 cylinder z 0 0 0.31667	${forceZmin} ${forceZmax} side out 	# inner region
region   forceRegIn10	 cylinder z 0 0 0.31667	0.7 ${forceZmax} side out 	
region   forceRegIn10	 cylinder z 0 0 0.31667	0.7 0.8 side out 	
region   forceRegOut10	 cylinder z 0 0 0.3375	${forceZmin} ${forceZmax} side in  	# outer region
region   forceRegOut10	 cylinder z 0 0 0.3375	0.7 ${forceZmax} side in  	
region   forceRegOut10	 cylinder z 0 0 0.3375	0.7 0.8 side in  	
region   forceReg10		 intersect 2 forceRegIn10 forceRegOut10						# annular region
variable nForceReg10	 equal count(all,forceReg10) 								# number of particles inside
variable forceRegArea10	 equal 0.042815												# ring area (m2)
variable forceFact10	 equal 0.29167												# force factor [0-1] (-)
variable totalForce10	 equal "-(v_forceFact10*(v_pressureMax-v_pressureMin)+v_pressureMin)*v_forceRegArea10"	# total force (N)
variable forcePerPart10	 equal "v_totalForce10/(v_nForceReg10+1e-3)"				# force per particle (N)
fix      force10		 all addforce 0 0 v_forcePerPart10 region forceReg10		# apply force

# Region11
region   forceRegIn11	 cylinder z 0 0 0.3375	${forceZmin} ${forceZmax} side out 	# inner region
region   forceRegIn11	 cylinder z 0 0 0.3375	0.7 ${forceZmax} side out 	
region   forceRegIn11	 cylinder z 0 0 0.3375	0.7 0.8 side out 	
region   forceRegOut11	 cylinder z 0 0 0.35833	${forceZmin} ${forceZmax} side in  	# outer region
region   forceRegOut11	 cylinder z 0 0 0.35833	0.7 ${forceZmax} side in  	
region   forceRegOut11	 cylinder z 0 0 0.35833	0.7 0.8 side in  	
region   forceReg11		 intersect 2 forceRegIn11 forceRegOut11						# annular region
variable nForceReg11	 equal count(all,forceReg11) 								# number of particles inside
variable forceRegArea11	 equal 0.045542												# ring area (m2)
variable forceFact11	 equal 0.20833												# force factor [0-1] (-)
variable totalForce11	 equal "-(v_forceFact11*(v_pressureMax-v_pressureMin)+v_pressureMin)*v_forceRegArea11"	# total force (N)
variable forcePerPart11	 equal "v_totalForce11/(v_nForceReg11+1e-3)"				# force per particle (N)
fix      force11		 all addforce 0 0 v_forcePerPart11 region forceReg11		# apply force

# Region12
region   forceRegIn12	 cylinder z 0 0 0.35833	${forceZmin} ${forceZmax} side out 	# inner region
region   forceRegIn12	 cylinder z 0 0 0.35833	0.7 ${forceZmax} side out 	
region   forceRegIn12	 cylinder z 0 0 0.35833	0.7 0.8 side out 	
region   forceRegOut12	 cylinder z 0 0 0.37917	${forceZmin} ${forceZmax} side in  	# outer region
region   forceRegOut12	 cylinder z 0 0 0.37917	0.7 ${forceZmax} side in  	
region   forceRegOut12	 cylinder z 0 0 0.37917	0.7 0.8 side in  	
region   forceReg12		 intersect 2 forceRegIn12 forceRegOut12						# annular region
variable nForceReg12	 equal count(all,forceReg12) 								# number of particles inside
variable forceRegArea12	 equal 0.048269												# ring area (m2)
variable forceFact12	 equal 0.125												# force factor [0-1] (-)
variable totalForce12	 equal "-(v_forceFact12*(v_pressureMax-v_pressureMin)+v_pressureMin)*v_forceRegArea12"	# total force (N)
variable forcePerPart12	 equal "v_totalForce12/(v_nForceReg12+1e-3)"				# force per particle (N)
fix      force12		 all addforce 0 0 v_forcePerPart12 region forceReg12		# apply force

# Region13
region   forceRegIn13	 cylinder z 0 0 0.37917	${forceZmin} ${forceZmax} side out 	# inner region
region   forceRegIn13	 cylinder z 0 0 0.37917	0.7 ${forceZmax} side out 	
region   forceRegIn13	 cylinder z 0 0 0.37917	0.7 0.8 side out 	
region   forceRegOut13	 cylinder z 0 0 0.4	${forceZmin} ${forceZmax} side in  	# outer region
region   forceRegOut13	 cylinder z 0 0 0.4	0.7 ${forceZmax} side in  	
region   forceRegOut13	 cylinder z 0 0 0.4	0.7 0.8 side in  	
region   forceReg13		 intersect 2 forceRegIn13 forceRegOut13						# annular region
variable nForceReg13	 equal count(all,forceReg13) 								# number of particles inside
variable forceRegArea13	 equal 0.050996												# ring area (m2)
variable forceFact13	 equal 0.041667												# force factor [0-1] (-)
variable totalForce13	 equal "-(v_forceFact13*(v_pressureMax-v_pressureMin)+v_pressureMin)*v_forceRegArea13"	# total force (N)
variable forcePerPart13	 equal "v_totalForce13/(v_nForceReg13+1e-3)"				# force per particle (N)
fix      force13		 all addforce 0 0 v_forcePerPart13 region forceReg13		# apply force

# Region14
region   forceRegIn14	 cylinder z 0 0 0.4	${forceZmin} ${forceZmax} side out 	# inner region
region   forceRegIn14	 cylinder z 0 0 0.4	0.7 ${forceZmax} side out 	
region   forceRegIn14	 cylinder z 0 0 0.4	0.7 0.8 side out 	
region   forceRegOut14	 cylinder z 0 0 0.5	${forceZmin} ${forceZmax} side in  	# outer region
region   forceRegOut14	 cylinder z 0 0 0.5	0.7 ${forceZmax} side in  	
region   forceRegOut14	 cylinder z 0 0 0.5	0.7 0.8 side in  	
region   forceReg14		 intersect 2 forceRegIn14 forceRegOut14						# annular region
variable nForceReg14	 equal count(all,forceReg14) 								# number of particles inside
variable forceRegArea14	 equal 0.28274												# ring area (m2)
variable forceFact14	 equal 0												# force factor [0-1] (-)
variable totalForce14	 equal "-(v_forceFact14*(v_pressureMax-v_pressureMin)+v_pressureMin)*v_forceRegArea14"	# total force (N)
variable forcePerPart14	 equal "v_totalForce14/(v_nForceReg14+1e-3)"				# force per particle (N)
fix      force14		 all addforce 0 0 v_forcePerPart14 region forceReg14		# apply force

variable totalForce		 equal "v_forcePerPart01*v_nForceReg01+v_forcePerPart02*v_nForceReg02+v_forcePerPart03*v_nForceReg03+v_forcePerPart04*v_nForceReg04+v_forcePerPart05*v_nForceReg05+v_forcePerPart06*v_nForceReg06+v_forcePerPart07*v_nForceReg07+v_forcePerPart08*v_nForceReg08+v_forcePerPart09*v_nForceReg09+v_forcePerPart10*v_nForceReg10+v_forcePerPart11*v_nForceReg11+v_forcePerPart12*v_nForceReg12+v_forcePerPart13*v_nForceReg13+v_forcePerPart14*v_nForceReg14" 	# sum of all forces (N)
variable nForceReg		 equal "v_nForceReg01+v_nForceReg02+v_nForceReg03+v_nForceReg04+v_nForceReg05+v_nForceReg06+v_nForceReg07+v_nForceReg08+v_nForceReg09+v_nForceReg10+v_nForceReg11+v_nForceReg12+v_nForceReg13+v_nForceReg14" 	# sum of all numbers of particles (N)
variable avForcePerPart	 equal "v_totalForce/(v_nForceReg+1e-3)"	# average force per particle (N)

# insert in insertion volume
fix         	ins3 all insert/pack seed 32452843 distributiontemplate pdd1 all_in yes insert_every ${delIntSteps} overlapcheck yes region insShellReg volumefraction_region 0.7
fix         	ins3 all insert/pack seed 32452843 distributiontemplate pdd1 all_in yes insert_every 1000 overlapcheck yes region insShellReg volumefraction_region 0.7
INFO: Resetting random generator for region insShellReg
Resetting global state of Fix ins3 Style insert/pack from restart file info
fix         	ins4 all insert/pack seed 32452843 distributiontemplate pdd2 all_in yes insert_every ${delIntSteps} overlapcheck yes region insCoreReg  volumefraction_region 0.7
fix         	ins4 all insert/pack seed 32452843 distributiontemplate pdd2 all_in yes insert_every 1000 overlapcheck yes region insCoreReg  volumefraction_region 0.7
INFO: Resetting random generator for region insCoreReg
Resetting global state of Fix ins4 Style insert/pack from restart file info

######################################

# apply nve integration to all particles
fix             integr all nve/sphere

# output settings
thermo_style    custom step time atoms ke v_totalForce v_avForcePerPart v_nDelRun
thermo          10

# dump settings
dump            dmp all custom 5000 ../DEM/post/dump*.liggghts_run id type x y z ix iy iz vx vy vz fx fy fz omegax omegay omegaz radius density f_Temp[0] f_convectiveHeatFlux[0]
# the /couple/cfd/dissolve seems not working, so I commend this out: f_convectiveMassFlux[0]
#5000
run             0
Resetting global state of Fix contacthistory Style contacthistory from restart file info
Resetting per-atom state of Fix contacthistory Style contacthistory from restart file info
Setting up run ...
Import and parallelization of mesh sides containing 2592 triangle(s) successful
Import and parallelization of mesh bottom containing 1024 triangle(s) successful
INFO: Resetting random generator for region insShellReg
INFO: Particle insertion ins3: inserting every 1000 steps
INFO: Resetting random generator for region insCoreReg
INFO: Particle insertion ins4: inserting every 1000 steps
Memory usage per processor = 24.93 Mbytes
Step Time Atoms KinEng totalFor avForceP nDelRun 
ERROR: Divide by 0 in variable formula (/home/ht45454/CFDEM/LIGGGHTS/src/variable.cpp:1569)
--------------------------------------------------------------------------
Primary job  terminated normally, but 1 process returned
a non-zero exit code. Per user-direction, the job has been aborted.
--------------------------------------------------------------------------
--------------------------------------------------------------------------
mpirun detected that one or more processes exited with non-zero status, thus causing
the job to be terminated. The first process to do so was:

  Process name: [[1260,1],0]
  Exit code:    1
--------------------------------------------------------------------------

//      //

/home/ht45454/CFDEM/CFDEMcoupling-24.01-4.x/tutorials/cfdemSolverMultiphaseScalar/small_hearth/CFD

/*---------------------------------------------------------------------------*\
| =========                 |                                                 |
| \\      /  F ield         | OpenFOAM: The Open Source CFD Toolbox           |
|  \\    /   O peration     | Version:  4.x                                   |
|   \\  /    A nd           | Web:      www.OpenFOAM.org                      |
|    \\/     M anipulation  |                                                 |
\*---------------------------------------------------------------------------*/
Build  : 4.x-d214c8dfd5ba
Exec   : cfdemSolverMultiphaseScalar -parallel
Date   : Jan 18 2025
Time   : 09:55:13
Host   : "TUE035485"
PID    : 9248
Case   : /home/ht45454/CFDEM/CFDEMcoupling-24.01-4.x/tutorials/cfdemSolverMultiphaseScalar/small_hearth/CFD
nProcs : 8
Slaves : 
7
(
"TUE035485.9249"
"TUE035485.9250"
"TUE035485.9251"
"TUE035485.9252"
"TUE035485.9253"
"TUE035485.9254"
"TUE035485.9255"
)

Pstream initialized with:
    floatTransfer      : 0
    nProcsSimpleSum    : 0
    commsType          : nonBlocking
    polling iterations : 0
sigFpe : Enabling floating point exception trapping (FOAM_SIGFPE).
fileModificationChecking : Monitoring run-time modified files using timeStampMaster
allowSystemOperations : Allowing user-supplied system call operations

// * * * * * * * * * * * * * * * * * * * * * * * * * * * * * * * * * * * * * //
Create time

Create mesh for time = 0


PIMPLE: Operating solver in PISO mode


Reading momentum exchange field Ksl


Reading voidfraction field voidfraction = (Vgas/Vparticle)

Reading particle velocity field Us

Reading field p_rgh

Reading field U

Reading/calculating face flux field phi

Selecting incompressible transport model Newtonian
Selecting incompressible transport model Newtonian
Reading/creating thermal fields

Reading/creating concentration fields

Selecting turbulence model type laminar

Reading g

Reading hRef
Calculating field g.h

No finite volume options present

GAMGPCG:  Solving for pcorr, Initial residual = 0, Final residual = 0, No Iterations 0
GAMGPCG:  Solving for pcorr, Initial residual = 0, Final residual = 0, No Iterations 0
time step continuity errors : sum local = 0, global = 0, cumulative = 0
Courant Number mean: 0 max: 0
Selecting dataExchangeModel twoWayMPI
Starting up LIGGGHTS for first time execution
Executing input script '../DEM/in.liggghts_run'
LIGGGHTS (Version LIGGGHTS-PFM 24.01, compiled 2025-01-17-18:01:04 by ht45454, git commit d075b97762ce4302707903718dda170920e630bd, based on LAMMPS 23 Nov 2013)
log             ../log/log.liggghts_run
thermo_log      ../log/thermo.txt

atom_style      granular
atom_modify     map array
boundary        f f f
newton          off

communicate     single vel yes

units           si
processors      2 2 2

# read the restart file
read_restart    ../DEM/post/restart/liggghts.restartSequence
Reading restart file ...
  orthogonal box = (-0.5 -0.5 -0.0025) to (0.5 0.5 1)
  2 by 2 by 2 MPI processor grid
SURFACE/DEFAULT loaded
HERTZ loaded
TANGENTIAL/HISTORY loaded
EPSD loaded
  80888 atoms

neighbor        0.007 bin
neigh_modify    delay 0

# contact model
include         ../DEM/in.contact_settings
# Material properties required for granular pair styles
fix             m1 all property/global youngsModulus	                peratomtype       5.e6
fix             m2 all property/global poissonsRatio 	                peratomtype	  0.3
fix             m3 all property/global coefficientRestitution           peratomtypepair 1 0.3
fix             m4 all property/global coefficientFriction 	        peratomtypepair 1 0.5
fix             m5 all property/global coefficientRollingFriction       peratomtypepair 1 0.2
fix             m6 all property/global coefficientRollingViscousDamping peratomtypepair 1 0.3

# pair style
pair_style	gran model hertz tangential history rolling_friction epsd
SURFACE/DEFAULT loaded
HERTZ loaded
TANGENTIAL/HISTORY loaded
EPSD loaded
pair_coeff  	* *

# hearth settings
include         ../DEM/in.hearth_settings
# hearth settings
variable        hearthRadius  equal 0.5     # hearth radius (m)
variable        coreRadius    equal 0.15    # radius of core region (m)
variable        liquidLevel   equal 0.4     # initial liquid level (m) [set in setFieldsDict as well!]
variable        liquidDensity equal 6700.   # liquid density (kg/m3)

# heat/mass transfer settings
variable        particlekInit equal 5000    # particle thermal conductivity during init (W/Km)
variable        particlekRun  equal 40.0    # particle thermal conductivity during run  (W/Km) [sped up! 2.0*20!]
variable        particleCp    equal 870     # particle heat capacity (J/kgK)
variable        Tinlet        equal 1823.15 # particle inlet temperature (K) [set in CFD as well!]
variable        Tinit         equal 1623.15 # initial temperature (K) [set in CFD as well!]
variable        Twall         equal 1423.15 # wall temperature (K) [set in CFD as well!]
variable        rRemove       equal 0.001   # radius at which dissolved particles are removed (m)

# zone definitions
variable        forceZmin     equal 0.70    # lower boundary of force zone (m)
variable        forceZmax     equal 0.80    # upper boundary of force zone (m)
variable        insZmin       equal 0.70    # lower boundary of insertion zone (m)
variable        insZmax       equal 0.80    # upper boundary of insertion zone (m)

region          bedReg        cylinder z 0 0 ${hearthRadius} 0            ${insZmax}
region          bedReg        cylinder z 0 0 0.5 0            ${insZmax}
region          bedReg        cylinder z 0 0 0.5 0            0.8
region          coreReg       cylinder z 0 0 ${coreRadius}   0            ${insZmax} side in
region          coreReg       cylinder z 0 0 0.15   0            ${insZmax} side in
region          coreReg       cylinder z 0 0 0.15   0            0.8 side in
region          invCoreReg    cylinder z 0 0 ${coreRadius}   0            ${insZmax} side out
region          invCoreReg    cylinder z 0 0 0.15   0            ${insZmax} side out
region          invCoreReg    cylinder z 0 0 0.15   0            0.8 side out
region          shellReg      intersect 2 bedReg invCoreReg

region		insReg        cylinder z 0 0 ${hearthRadius} ${insZmin}   ${insZmax}
region		insReg        cylinder z 0 0 0.5 ${insZmin}   ${insZmax}
region		insReg        cylinder z 0 0 0.5 0.7   ${insZmax}
region		insReg        cylinder z 0 0 0.5 0.7   0.8
region          insCoreReg    intersect 2 insReg coreReg
region          insShellReg   intersect 2 insReg invCoreReg

region		forceReg      cylinder z 0 0 ${hearthRadius} ${forceZmin} ${forceZmax}
region		forceReg      cylinder z 0 0 0.5 ${forceZmin} ${forceZmax}
region		forceReg      cylinder z 0 0 0.5 0.7 ${forceZmax}
region		forceReg      cylinder z 0 0 0.5 0.7 0.8
region          freeboard     cylinder z 0 0 ${hearthRadius} ${insZmax} INF
region          freeboard     cylinder z 0 0 0.5 ${insZmax} INF
region          freeboard     cylinder z 0 0 0.5 0.8 INF

region          mushroom      block 0.4 0.5 -0.05 0.05 0.2 0.3 side out # mushroom cutout
region          initReg       intersect 2 bedReg mushroom # entire bed minus mushroom
region          initCoreReg   intersect 2 initReg coreReg
region          initShellReg  intersect 2 initReg invCoreReg

# total burden weight
variable        pressureMin   equal 2000    # lower pressure value (Pa), near wall
variable        pressureMax   equal 20000   # upper pressure value (Pa), near core

# kinetic energy
variable        kinEn         equal ke      # kinetic energy (J)
variable        kinEnMax      equal 2.      # kinetic energy threshold for init (J)

# coke removal settings
variable        cokeRateInit  equal 20.     # coke combustion rate during init (kg/s)
variable        cokeRateRun   equal 1.      # coke combustion rate during run (kg/s)
variable        delInt        equal 0.1     # removal interval (s) [set in liggghtsCommands as well!]

variable        nFreeboard    equal count(all,freeboard)

variable        nRaceways     equal count(all,raceways)
variable        mRaceways     equal mass(all,raceways)
variable        avMass        equal "v_mRaceways/(v_nRaceways+1e-3)"

variable        delIntSteps   equal "floor(v_delInt/dt)"

variable        nDelInit      equal "v_delIntSteps*dt*v_cokeRateInit/v_avMass"
variable        fDelInit      equal "v_nDelInit/(v_nRaceways+1e-3)"

variable        nDelRun       equal "v_delIntSteps*dt*v_cokeRateRun/v_avMass"
variable        fDelRun       equal "v_nDelRun/(v_nRaceways+1e-3)"




# timestep
timestep        1e-4

# cfd coupling
fix             cfd all couple/cfd couple_every 100 mpi
nevery as specified in LIGGGHTS is overriden by calling external program (/home/ht45454/CFDEM/LIGGGHTS/src/cfd_datacoupling_mpi.cpp:56)
fix             cfd2 all couple/cfd/force/implicit

# heat transfer
fix             m7 all property/global thermalConductivity peratomtype ${particlekRun} # lambda in [W/(K*m)]
fix             m7 all property/global thermalConductivity peratomtype 40 
fix             m8 all property/global thermalCapacity     peratomtype ${particleCp}   # cp in [J/(kg*K)]
fix             m8 all property/global thermalCapacity     peratomtype 870   
fix             heattransfer all heat/gran/conduction initial_temperature ${Tinlet}
fix             heattransfer all heat/gran/conduction initial_temperature 1823.15
Resetting global state of Fix Temp Style property/atom from restart file info
Resetting per-atom state of Fix Temp Style property/atom from restart file info
Resetting global state of Fix heatFlux Style property/atom from restart file info
Resetting per-atom state of Fix heatFlux Style property/atom from restart file info
Resetting global state of Fix heatSource Style property/atom from restart file info
Resetting per-atom state of Fix heatSource Style property/atom from restart file info
fix             cfd3 all couple/cfd/convection T0 ${Tinlet}
fix             cfd3 all couple/cfd/convection T0 1823.15

# mass transfer
fix             cfd4 all couple/cfd/dissolve rmin ${rRemove}
fix             cfd4 all couple/cfd/dissolve rmin 0.001

# walls
include         ../DEM/in.wall_settings
fix		sides     all mesh/surface file ../DEM/mesh/small_hearth_sides.stl       type 1 temperature ${Twall} curvature 1e-5
fix		sides     all mesh/surface file ../DEM/mesh/small_hearth_sides.stl       type 1 temperature 1423.15 curvature 1e-5
Resetting global state of Fix sides Style mesh/surface from restart file info
fix 		bottom    all mesh/surface file ../DEM/mesh/small_hearth_bottom.stl      type 1 temperature ${Twall}
fix 		bottom    all mesh/surface file ../DEM/mesh/small_hearth_bottom.stl      type 1 temperature 1423.15
Resetting global state of Fix bottom Style mesh/surface from restart file info
fix		granwalls all wall/gran model hertz tangential history rolling_friction epsd mesh n_meshes 2 meshes sides bottom temperature ${Twall}
fix		granwalls all wall/gran model hertz tangential history rolling_friction epsd mesh n_meshes 2 meshes sides bottom temperature 1423.15
SURFACE/DEFAULT loaded
HERTZ loaded
TANGENTIAL/HISTORY loaded
EPSD loaded
Resetting global state of Fix n_neighs_mesh_sides Style property/atom from restart file info
Resetting per-atom state of Fix n_neighs_mesh_sides Style property/atom from restart file info
Resetting global state of Fix tracker_sides Style contacthistory/mesh from restart file info
Resetting per-atom state of Fix tracker_sides Style contacthistory/mesh from restart file info
Resetting global state of Fix n_neighs_mesh_bottom Style property/atom from restart file info
Resetting per-atom state of Fix n_neighs_mesh_bottom Style property/atom from restart file info
Resetting global state of Fix tracker_bottom Style contacthistory/mesh from restart file info
Resetting per-atom state of Fix tracker_bottom Style contacthistory/mesh from restart file info

# gravity
fix		gravi all gravity 9.81 vector 0.0 0.0 -1.0

######################################

# particle distribution
include	   	../DEM/in.particleSizeDistribution1
# Particle size distribution for LIGGGHTS

# mean radius = 0.0100000 m
# standard deviation = 0.00000 m
# density = 900 kg/m3

fix	pts1 all particletemplate/sphere 10007 atom_type 1 density constant 900 radius constant 0.01
Resetting global state of Fix pts1 Style particletemplate/sphere from restart file info

fix	pdd1 all particledistribution/discrete 10009 1 pts1 1.000000
Fix particledistribution/discrete (id pdd1): distribution based on mass%:
    pts1: d=2.000000e-02 (max. bounding sphere) mass%=100.000000%
Fix particledistribution/discrete (id pdd1): distribution based on number%:
    pts1: d=2.000000e-02 (max. bounding sphere) number%=100.000000%
Resetting global state of Fix pdd1 Style particledistribution/discrete from restart file info
include	   	../DEM/in.particleSizeDistribution2
# Particle size distribution for LIGGGHTS

# mean radius = 0.0125000 m
# standard deviation = 0.00000 m
# density = 900 kg/m3

fix	pts2 all particletemplate/sphere 10037 atom_type 1 density constant 900 radius constant 0.0125
Resetting global state of Fix pts2 Style particletemplate/sphere from restart file info

fix	pdd2 all particledistribution/discrete 10039 1 pts2 1.000000
Fix particledistribution/discrete (id pdd2): distribution based on mass%:
    pts2: d=2.500000e-02 (max. bounding sphere) mass%=100.000000%
Fix particledistribution/discrete (id pdd2): distribution based on number%:
    pts2: d=2.500000e-02 (max. bounding sphere) number%=100.000000%
Resetting global state of Fix pdd2 Style particledistribution/discrete from restart file info

# raceways
include		../DEM/in.raceways
# Raceway definition for LIGGGHTS

# reactor radius = 0.500000 m
# raceway height = 0.500000 m
# raceway diameter = 0.100000 m
# raceway length = 0.100000 m
# number of raceways = 8

variable angle1 equal 0.000000
region raceway1 cylinder x 0.000000 0.500000 0.050000 0.400000 0.500000 rotate v_angle1 0 0 0 0 0 1
variable angle2 equal 0.785398
region raceway2 cylinder x 0.000000 0.500000 0.050000 0.400000 0.500000 rotate v_angle2 0 0 0 0 0 1
variable angle3 equal 1.570796
region raceway3 cylinder x 0.000000 0.500000 0.050000 0.400000 0.500000 rotate v_angle3 0 0 0 0 0 1
variable angle4 equal 2.356194
region raceway4 cylinder x 0.000000 0.500000 0.050000 0.400000 0.500000 rotate v_angle4 0 0 0 0 0 1
variable angle5 equal 3.141593
region raceway5 cylinder x 0.000000 0.500000 0.050000 0.400000 0.500000 rotate v_angle5 0 0 0 0 0 1
variable angle6 equal 3.926991
region raceway6 cylinder x 0.000000 0.500000 0.050000 0.400000 0.500000 rotate v_angle6 0 0 0 0 0 1
variable angle7 equal 4.712389
region raceway7 cylinder x 0.000000 0.500000 0.050000 0.400000 0.500000 rotate v_angle7 0 0 0 0 0 1
variable angle8 equal 5.497787
region raceway8 cylinder x 0.000000 0.500000 0.050000 0.400000 0.500000 rotate v_angle8 0 0 0 0 0 1

region raceways union 8 raceway1 raceway2 raceway3 raceway4 raceway5 raceway6 raceway7 raceway8

# burden weight
include         ../DEM/in.pressure_profile
# Pressure profile definition for LIGGGHTS

# reactor radius = 0.500000 m
# R1 = 0.150000 m
# R2 = 0.400000 m
# number of bins = 12

# Region01
region   forceReg01		 cylinder z 0 0 0.15	${forceZmin} ${forceZmax} side in  	# center region
region   forceReg01		 cylinder z 0 0 0.15	0.7 ${forceZmax} side in  	
region   forceReg01		 cylinder z 0 0 0.15	0.7 0.8 side in  	
variable nForceReg01	 equal count(all,forceReg01) 								# number of particles inside
variable forceRegArea01	 equal 0.070686												# ring area (m2)
variable forceFact01	 equal 1												# force factor [0-1] (-)
variable totalForce01	 equal "-(v_forceFact01*(v_pressureMax-v_pressureMin)+v_pressureMin)*v_forceRegArea01"	# total force (N)
variable forcePerPart01	 equal "v_totalForce01/(v_nForceReg01+1e-3)"				# force per particle (N)
fix      force01		 all addforce 0 0 v_forcePerPart01 region forceReg01		# apply force

# Region02
region   forceRegIn02	 cylinder z 0 0 0.15	${forceZmin} ${forceZmax} side out 	# inner region
region   forceRegIn02	 cylinder z 0 0 0.15	0.7 ${forceZmax} side out 	
region   forceRegIn02	 cylinder z 0 0 0.15	0.7 0.8 side out 	
region   forceRegOut02	 cylinder z 0 0 0.17083	${forceZmin} ${forceZmax} side in  	# outer region
region   forceRegOut02	 cylinder z 0 0 0.17083	0.7 ${forceZmax} side in  	
region   forceRegOut02	 cylinder z 0 0 0.17083	0.7 0.8 side in  	
region   forceReg02		 intersect 2 forceRegIn02 forceRegOut02						# annular region
variable nForceReg02	 equal count(all,forceReg02) 								# number of particles inside
variable forceRegArea02	 equal 0.020998												# ring area (m2)
variable forceFact02	 equal 0.95833												# force factor [0-1] (-)
variable totalForce02	 equal "-(v_forceFact02*(v_pressureMax-v_pressureMin)+v_pressureMin)*v_forceRegArea02"	# total force (N)
variable forcePerPart02	 equal "v_totalForce02/(v_nForceReg02+1e-3)"				# force per particle (N)
fix      force02		 all addforce 0 0 v_forcePerPart02 region forceReg02		# apply force

# Region03
region   forceRegIn03	 cylinder z 0 0 0.17083	${forceZmin} ${forceZmax} side out 	# inner region
region   forceRegIn03	 cylinder z 0 0 0.17083	0.7 ${forceZmax} side out 	
region   forceRegIn03	 cylinder z 0 0 0.17083	0.7 0.8 side out 	
region   forceRegOut03	 cylinder z 0 0 0.19167	${forceZmin} ${forceZmax} side in  	# outer region
region   forceRegOut03	 cylinder z 0 0 0.19167	0.7 ${forceZmax} side in  	
region   forceRegOut03	 cylinder z 0 0 0.19167	0.7 0.8 side in  	
region   forceReg03		 intersect 2 forceRegIn03 forceRegOut03						# annular region
variable nForceReg03	 equal count(all,forceReg03) 								# number of particles inside
variable forceRegArea03	 equal 0.023726												# ring area (m2)
variable forceFact03	 equal 0.875												# force factor [0-1] (-)
variable totalForce03	 equal "-(v_forceFact03*(v_pressureMax-v_pressureMin)+v_pressureMin)*v_forceRegArea03"	# total force (N)
variable forcePerPart03	 equal "v_totalForce03/(v_nForceReg03+1e-3)"				# force per particle (N)
fix      force03		 all addforce 0 0 v_forcePerPart03 region forceReg03		# apply force

# Region04
region   forceRegIn04	 cylinder z 0 0 0.19167	${forceZmin} ${forceZmax} side out 	# inner region
region   forceRegIn04	 cylinder z 0 0 0.19167	0.7 ${forceZmax} side out 	
region   forceRegIn04	 cylinder z 0 0 0.19167	0.7 0.8 side out 	
region   forceRegOut04	 cylinder z 0 0 0.2125	${forceZmin} ${forceZmax} side in  	# outer region
region   forceRegOut04	 cylinder z 0 0 0.2125	0.7 ${forceZmax} side in  	
region   forceRegOut04	 cylinder z 0 0 0.2125	0.7 0.8 side in  	
region   forceReg04		 intersect 2 forceRegIn04 forceRegOut04						# annular region
variable nForceReg04	 equal count(all,forceReg04) 								# number of particles inside
variable forceRegArea04	 equal 0.026453												# ring area (m2)
variable forceFact04	 equal 0.79167												# force factor [0-1] (-)
variable totalForce04	 equal "-(v_forceFact04*(v_pressureMax-v_pressureMin)+v_pressureMin)*v_forceRegArea04"	# total force (N)
variable forcePerPart04	 equal "v_totalForce04/(v_nForceReg04+1e-3)"				# force per particle (N)
fix      force04		 all addforce 0 0 v_forcePerPart04 region forceReg04		# apply force

# Region05
region   forceRegIn05	 cylinder z 0 0 0.2125	${forceZmin} ${forceZmax} side out 	# inner region
region   forceRegIn05	 cylinder z 0 0 0.2125	0.7 ${forceZmax} side out 	
region   forceRegIn05	 cylinder z 0 0 0.2125	0.7 0.8 side out 	
region   forceRegOut05	 cylinder z 0 0 0.23333	${forceZmin} ${forceZmax} side in  	# outer region
region   forceRegOut05	 cylinder z 0 0 0.23333	0.7 ${forceZmax} side in  	
region   forceRegOut05	 cylinder z 0 0 0.23333	0.7 0.8 side in  	
region   forceReg05		 intersect 2 forceRegIn05 forceRegOut05						# annular region
variable nForceReg05	 equal count(all,forceReg05) 								# number of particles inside
variable forceRegArea05	 equal 0.02918												# ring area (m2)
variable forceFact05	 equal 0.70833												# force factor [0-1] (-)
variable totalForce05	 equal "-(v_forceFact05*(v_pressureMax-v_pressureMin)+v_pressureMin)*v_forceRegArea05"	# total force (N)
variable forcePerPart05	 equal "v_totalForce05/(v_nForceReg05+1e-3)"				# force per particle (N)
fix      force05		 all addforce 0 0 v_forcePerPart05 region forceReg05		# apply force

# Region06
region   forceRegIn06	 cylinder z 0 0 0.23333	${forceZmin} ${forceZmax} side out 	# inner region
region   forceRegIn06	 cylinder z 0 0 0.23333	0.7 ${forceZmax} side out 	
region   forceRegIn06	 cylinder z 0 0 0.23333	0.7 0.8 side out 	
region   forceRegOut06	 cylinder z 0 0 0.25417	${forceZmin} ${forceZmax} side in  	# outer region
region   forceRegOut06	 cylinder z 0 0 0.25417	0.7 ${forceZmax} side in  	
region   forceRegOut06	 cylinder z 0 0 0.25417	0.7 0.8 side in  	
region   forceReg06		 intersect 2 forceRegIn06 forceRegOut06						# annular region
variable nForceReg06	 equal count(all,forceReg06) 								# number of particles inside
variable forceRegArea06	 equal 0.031907												# ring area (m2)
variable forceFact06	 equal 0.625												# force factor [0-1] (-)
variable totalForce06	 equal "-(v_forceFact06*(v_pressureMax-v_pressureMin)+v_pressureMin)*v_forceRegArea06"	# total force (N)
variable forcePerPart06	 equal "v_totalForce06/(v_nForceReg06+1e-3)"				# force per particle (N)
fix      force06		 all addforce 0 0 v_forcePerPart06 region forceReg06		# apply force

# Region07
region   forceRegIn07	 cylinder z 0 0 0.25417	${forceZmin} ${forceZmax} side out 	# inner region
region   forceRegIn07	 cylinder z 0 0 0.25417	0.7 ${forceZmax} side out 	
region   forceRegIn07	 cylinder z 0 0 0.25417	0.7 0.8 side out 	
region   forceRegOut07	 cylinder z 0 0 0.275	${forceZmin} ${forceZmax} side in  	# outer region
region   forceRegOut07	 cylinder z 0 0 0.275	0.7 ${forceZmax} side in  	
region   forceRegOut07	 cylinder z 0 0 0.275	0.7 0.8 side in  	
region   forceReg07		 intersect 2 forceRegIn07 forceRegOut07						# annular region
variable nForceReg07	 equal count(all,forceReg07) 								# number of particles inside
variable forceRegArea07	 equal 0.034634												# ring area (m2)
variable forceFact07	 equal 0.54167												# force factor [0-1] (-)
variable totalForce07	 equal "-(v_forceFact07*(v_pressureMax-v_pressureMin)+v_pressureMin)*v_forceRegArea07"	# total force (N)
variable forcePerPart07	 equal "v_totalForce07/(v_nForceReg07+1e-3)"				# force per particle (N)
fix      force07		 all addforce 0 0 v_forcePerPart07 region forceReg07		# apply force

# Region08
region   forceRegIn08	 cylinder z 0 0 0.275	${forceZmin} ${forceZmax} side out 	# inner region
region   forceRegIn08	 cylinder z 0 0 0.275	0.7 ${forceZmax} side out 	
region   forceRegIn08	 cylinder z 0 0 0.275	0.7 0.8 side out 	
region   forceRegOut08	 cylinder z 0 0 0.29583	${forceZmin} ${forceZmax} side in  	# outer region
region   forceRegOut08	 cylinder z 0 0 0.29583	0.7 ${forceZmax} side in  	
region   forceRegOut08	 cylinder z 0 0 0.29583	0.7 0.8 side in  	
region   forceReg08		 intersect 2 forceRegIn08 forceRegOut08						# annular region
variable nForceReg08	 equal count(all,forceReg08) 								# number of particles inside
variable forceRegArea08	 equal 0.037361												# ring area (m2)
variable forceFact08	 equal 0.45833												# force factor [0-1] (-)
variable totalForce08	 equal "-(v_forceFact08*(v_pressureMax-v_pressureMin)+v_pressureMin)*v_forceRegArea08"	# total force (N)
variable forcePerPart08	 equal "v_totalForce08/(v_nForceReg08+1e-3)"				# force per particle (N)
fix      force08		 all addforce 0 0 v_forcePerPart08 region forceReg08		# apply force

# Region09
region   forceRegIn09	 cylinder z 0 0 0.29583	${forceZmin} ${forceZmax} side out 	# inner region
region   forceRegIn09	 cylinder z 0 0 0.29583	0.7 ${forceZmax} side out 	
region   forceRegIn09	 cylinder z 0 0 0.29583	0.7 0.8 side out 	
region   forceRegOut09	 cylinder z 0 0 0.31667	${forceZmin} ${forceZmax} side in  	# outer region
region   forceRegOut09	 cylinder z 0 0 0.31667	0.7 ${forceZmax} side in  	
region   forceRegOut09	 cylinder z 0 0 0.31667	0.7 0.8 side in  	
region   forceReg09		 intersect 2 forceRegIn09 forceRegOut09						# annular region
variable nForceReg09	 equal count(all,forceReg09) 								# number of particles inside
variable forceRegArea09	 equal 0.040088												# ring area (m2)
variable forceFact09	 equal 0.375												# force factor [0-1] (-)
variable totalForce09	 equal "-(v_forceFact09*(v_pressureMax-v_pressureMin)+v_pressureMin)*v_forceRegArea09"	# total force (N)
variable forcePerPart09	 equal "v_totalForce09/(v_nForceReg09+1e-3)"				# force per particle (N)
fix      force09		 all addforce 0 0 v_forcePerPart09 region forceReg09		# apply force

# Region10
region   forceRegIn10	 cylinder z 0 0 0.31667	${forceZmin} ${forceZmax} side out 	# inner region
region   forceRegIn10	 cylinder z 0 0 0.31667	0.7 ${forceZmax} side out 	
region   forceRegIn10	 cylinder z 0 0 0.31667	0.7 0.8 side out 	
region   forceRegOut10	 cylinder z 0 0 0.3375	${forceZmin} ${forceZmax} side in  	# outer region
region   forceRegOut10	 cylinder z 0 0 0.3375	0.7 ${forceZmax} side in  	
region   forceRegOut10	 cylinder z 0 0 0.3375	0.7 0.8 side in  	
region   forceReg10		 intersect 2 forceRegIn10 forceRegOut10						# annular region
variable nForceReg10	 equal count(all,forceReg10) 								# number of particles inside
variable forceRegArea10	 equal 0.042815												# ring area (m2)
variable forceFact10	 equal 0.29167												# force factor [0-1] (-)
variable totalForce10	 equal "-(v_forceFact10*(v_pressureMax-v_pressureMin)+v_pressureMin)*v_forceRegArea10"	# total force (N)
variable forcePerPart10	 equal "v_totalForce10/(v_nForceReg10+1e-3)"				# force per particle (N)
fix      force10		 all addforce 0 0 v_forcePerPart10 region forceReg10		# apply force

# Region11
region   forceRegIn11	 cylinder z 0 0 0.3375	${forceZmin} ${forceZmax} side out 	# inner region
region   forceRegIn11	 cylinder z 0 0 0.3375	0.7 ${forceZmax} side out 	
region   forceRegIn11	 cylinder z 0 0 0.3375	0.7 0.8 side out 	
region   forceRegOut11	 cylinder z 0 0 0.35833	${forceZmin} ${forceZmax} side in  	# outer region
region   forceRegOut11	 cylinder z 0 0 0.35833	0.7 ${forceZmax} side in  	
region   forceRegOut11	 cylinder z 0 0 0.35833	0.7 0.8 side in  	
region   forceReg11		 intersect 2 forceRegIn11 forceRegOut11						# annular region
variable nForceReg11	 equal count(all,forceReg11) 								# number of particles inside
variable forceRegArea11	 equal 0.045542												# ring area (m2)
variable forceFact11	 equal 0.20833												# force factor [0-1] (-)
variable totalForce11	 equal "-(v_forceFact11*(v_pressureMax-v_pressureMin)+v_pressureMin)*v_forceRegArea11"	# total force (N)
variable forcePerPart11	 equal "v_totalForce11/(v_nForceReg11+1e-3)"				# force per particle (N)
fix      force11		 all addforce 0 0 v_forcePerPart11 region forceReg11		# apply force

# Region12
region   forceRegIn12	 cylinder z 0 0 0.35833	${forceZmin} ${forceZmax} side out 	# inner region
region   forceRegIn12	 cylinder z 0 0 0.35833	0.7 ${forceZmax} side out 	
region   forceRegIn12	 cylinder z 0 0 0.35833	0.7 0.8 side out 	
region   forceRegOut12	 cylinder z 0 0 0.37917	${forceZmin} ${forceZmax} side in  	# outer region
region   forceRegOut12	 cylinder z 0 0 0.37917	0.7 ${forceZmax} side in  	
region   forceRegOut12	 cylinder z 0 0 0.37917	0.7 0.8 side in  	
region   forceReg12		 intersect 2 forceRegIn12 forceRegOut12						# annular region
variable nForceReg12	 equal count(all,forceReg12) 								# number of particles inside
variable forceRegArea12	 equal 0.048269												# ring area (m2)
variable forceFact12	 equal 0.125												# force factor [0-1] (-)
variable totalForce12	 equal "-(v_forceFact12*(v_pressureMax-v_pressureMin)+v_pressureMin)*v_forceRegArea12"	# total force (N)
variable forcePerPart12	 equal "v_totalForce12/(v_nForceReg12+1e-3)"				# force per particle (N)
fix      force12		 all addforce 0 0 v_forcePerPart12 region forceReg12		# apply force

# Region13
region   forceRegIn13	 cylinder z 0 0 0.37917	${forceZmin} ${forceZmax} side out 	# inner region
region   forceRegIn13	 cylinder z 0 0 0.37917	0.7 ${forceZmax} side out 	
region   forceRegIn13	 cylinder z 0 0 0.37917	0.7 0.8 side out 	
region   forceRegOut13	 cylinder z 0 0 0.4	${forceZmin} ${forceZmax} side in  	# outer region
region   forceRegOut13	 cylinder z 0 0 0.4	0.7 ${forceZmax} side in  	
region   forceRegOut13	 cylinder z 0 0 0.4	0.7 0.8 side in  	
region   forceReg13		 intersect 2 forceRegIn13 forceRegOut13						# annular region
variable nForceReg13	 equal count(all,forceReg13) 								# number of particles inside
variable forceRegArea13	 equal 0.050996												# ring area (m2)
variable forceFact13	 equal 0.041667												# force factor [0-1] (-)
variable totalForce13	 equal "-(v_forceFact13*(v_pressureMax-v_pressureMin)+v_pressureMin)*v_forceRegArea13"	# total force (N)
variable forcePerPart13	 equal "v_totalForce13/(v_nForceReg13+1e-3)"				# force per particle (N)
fix      force13		 all addforce 0 0 v_forcePerPart13 region forceReg13		# apply force

# Region14
region   forceRegIn14	 cylinder z 0 0 0.4	${forceZmin} ${forceZmax} side out 	# inner region
region   forceRegIn14	 cylinder z 0 0 0.4	0.7 ${forceZmax} side out 	
region   forceRegIn14	 cylinder z 0 0 0.4	0.7 0.8 side out 	
region   forceRegOut14	 cylinder z 0 0 0.5	${forceZmin} ${forceZmax} side in  	# outer region
region   forceRegOut14	 cylinder z 0 0 0.5	0.7 ${forceZmax} side in  	
region   forceRegOut14	 cylinder z 0 0 0.5	0.7 0.8 side in  	
region   forceReg14		 intersect 2 forceRegIn14 forceRegOut14						# annular region
variable nForceReg14	 equal count(all,forceReg14) 								# number of particles inside
variable forceRegArea14	 equal 0.28274												# ring area (m2)
variable forceFact14	 equal 0												# force factor [0-1] (-)
variable totalForce14	 equal "-(v_forceFact14*(v_pressureMax-v_pressureMin)+v_pressureMin)*v_forceRegArea14"	# total force (N)
variable forcePerPart14	 equal "v_totalForce14/(v_nForceReg14+1e-3)"				# force per particle (N)
fix      force14		 all addforce 0 0 v_forcePerPart14 region forceReg14		# apply force

variable totalForce		 equal "v_forcePerPart01*v_nForceReg01+v_forcePerPart02*v_nForceReg02+v_forcePerPart03*v_nForceReg03+v_forcePerPart04*v_nForceReg04+v_forcePerPart05*v_nForceReg05+v_forcePerPart06*v_nForceReg06+v_forcePerPart07*v_nForceReg07+v_forcePerPart08*v_nForceReg08+v_forcePerPart09*v_nForceReg09+v_forcePerPart10*v_nForceReg10+v_forcePerPart11*v_nForceReg11+v_forcePerPart12*v_nForceReg12+v_forcePerPart13*v_nForceReg13+v_forcePerPart14*v_nForceReg14" 	# sum of all forces (N)
variable nForceReg		 equal "v_nForceReg01+v_nForceReg02+v_nForceReg03+v_nForceReg04+v_nForceReg05+v_nForceReg06+v_nForceReg07+v_nForceReg08+v_nForceReg09+v_nForceReg10+v_nForceReg11+v_nForceReg12+v_nForceReg13+v_nForceReg14" 	# sum of all numbers of particles (N)
variable avForcePerPart	 equal "v_totalForce/(v_nForceReg+1e-3)"	# average force per particle (N)

# insert in insertion volume
fix         	ins3 all insert/pack seed 32452843 distributiontemplate pdd1 all_in yes insert_every ${delIntSteps} overlapcheck yes region insShellReg volumefraction_region 0.7
fix         	ins3 all insert/pack seed 32452843 distributiontemplate pdd1 all_in yes insert_every 1000 overlapcheck yes region insShellReg volumefraction_region 0.7
INFO: Resetting random generator for region insShellReg
Resetting global state of Fix ins3 Style insert/pack from restart file info
fix         	ins4 all insert/pack seed 32452843 distributiontemplate pdd2 all_in yes insert_every ${delIntSteps} overlapcheck yes region insCoreReg  volumefraction_region 0.7
fix         	ins4 all insert/pack seed 32452843 distributiontemplate pdd2 all_in yes insert_every 1000 overlapcheck yes region insCoreReg  volumefraction_region 0.7
INFO: Resetting random generator for region insCoreReg
Resetting global state of Fix ins4 Style insert/pack from restart file info

######################################

# apply nve integration to all particles
fix             integr all nve/sphere

# output settings
thermo_style    custom step time atoms ke v_totalForce v_avForcePerPart v_nDelRun
thermo          10

# dump settings
dump            dmp all custom 5000 ../DEM/post/dump*.liggghts_run id type x y z ix iy iz vx vy vz fx fy fz omegax omegay omegaz radius density f_Temp[0] f_convectiveHeatFlux[0] f_convectiveMassFlux[0]
#5000
run             0
Resetting global state of Fix contacthistory Style contacthistory from restart file info
Resetting per-atom state of Fix contacthistory Style contacthistory from restart file info
Setting up run ...
Import and parallelization of mesh sides containing 2592 triangle(s) successful
Import and parallelization of mesh bottom containing 1024 triangle(s) successful
INFO: Resetting random generator for region insShellReg
INFO: Particle insertion ins3: inserting every 1000 steps
INFO: Resetting random generator for region insCoreReg
INFO: Particle insertion ins4: inserting every 1000 steps
Memory usage per processor = 24.93 Mbytes
Step Time Atoms KinEng totalFor avForceP nDelRun 
ERROR: Divide by 0 in variable formula (/home/ht45454/CFDEM/LIGGGHTS/src/variable.cpp:1569)
--------------------------------------------------------------------------
Primary job  terminated normally, but 1 process returned
a non-zero exit code. Per user-direction, the job has been aborted.
--------------------------------------------------------------------------
--------------------------------------------------------------------------
mpirun detected that one or more processes exited with non-zero status, thus causing
the job to be terminated. The first process to do so was:

  Process name: [[854,1],0]
  Exit code:    1
--------------------------------------------------------------------------

//      //

/home/ht45454/CFDEM/CFDEMcoupling-24.01-4.x/tutorials/cfdemSolverMultiphaseScalar/small_hearth/CFD

/*---------------------------------------------------------------------------*\
| =========                 |                                                 |
| \\      /  F ield         | OpenFOAM: The Open Source CFD Toolbox           |
|  \\    /   O peration     | Version:  4.x                                   |
|   \\  /    A nd           | Web:      www.OpenFOAM.org                      |
|    \\/     M anipulation  |                                                 |
\*---------------------------------------------------------------------------*/
Build  : 4.x-d214c8dfd5ba
Exec   : cfdemSolverMultiphaseScalar -parallel
Date   : Jan 18 2025
Time   : 10:41:05
Host   : "TUE035485"
PID    : 10839
Case   : /home/ht45454/CFDEM/CFDEMcoupling-24.01-4.x/tutorials/cfdemSolverMultiphaseScalar/small_hearth/CFD
nProcs : 8
Slaves : 
7
(
"TUE035485.10840"
"TUE035485.10841"
"TUE035485.10842"
"TUE035485.10843"
"TUE035485.10844"
"TUE035485.10845"
"TUE035485.10846"
)

Pstream initialized with:
    floatTransfer      : 0
    nProcsSimpleSum    : 0
    commsType          : nonBlocking
    polling iterations : 0
sigFpe : Enabling floating point exception trapping (FOAM_SIGFPE).
fileModificationChecking : Monitoring run-time modified files using timeStampMaster
allowSystemOperations : Allowing user-supplied system call operations

// * * * * * * * * * * * * * * * * * * * * * * * * * * * * * * * * * * * * * //
Create time

Create mesh for time = 0


PIMPLE: Operating solver in PISO mode


Reading momentum exchange field Ksl


Reading voidfraction field voidfraction = (Vgas/Vparticle)

Reading particle velocity field Us

Reading field p_rgh

Reading field U

Reading/calculating face flux field phi

Selecting incompressible transport model Newtonian
Selecting incompressible transport model Newtonian
Reading/creating thermal fields

Reading/creating concentration fields

Selecting turbulence model type laminar

Reading g

Reading hRef
Calculating field g.h

No finite volume options present

GAMGPCG:  Solving for pcorr, Initial residual = 0, Final residual = 0, No Iterations 0
GAMGPCG:  Solving for pcorr, Initial residual = 0, Final residual = 0, No Iterations 0
time step continuity errors : sum local = 0, global = 0, cumulative = 0
Courant Number mean: 0 max: 0
Selecting dataExchangeModel twoWayMPI
Starting up LIGGGHTS for first time execution
Executing input script '../DEM/in.liggghts_run'
LIGGGHTS (Version LIGGGHTS-PFM 24.01, compiled 2025-01-17-18:01:04 by ht45454, git commit d075b97762ce4302707903718dda170920e630bd, based on LAMMPS 23 Nov 2013)
log             ../log/log.liggghts_run
thermo_log      ../log/thermo.txt

atom_style      granular
atom_modify     map array
boundary        f f f
newton          off

communicate     single vel yes

units           si
processors      2 2 2

# read the restart file
read_restart    ../DEM/post/restart/liggghts.restartSequence
Reading restart file ...
  orthogonal box = (-0.5 -0.5 -0.0025) to (0.5 0.5 1)
  2 by 2 by 2 MPI processor grid
SURFACE/DEFAULT loaded
HERTZ loaded
TANGENTIAL/HISTORY loaded
EPSD loaded
  80888 atoms

neighbor        0.007 bin
neigh_modify    delay 0

# contact model
include         ../DEM/in.contact_settings
# Material properties required for granular pair styles
fix             m1 all property/global youngsModulus	                peratomtype       5.e6
fix             m2 all property/global poissonsRatio 	                peratomtype	  0.3
fix             m3 all property/global coefficientRestitution           peratomtypepair 1 0.3
fix             m4 all property/global coefficientFriction 	        peratomtypepair 1 0.5
fix             m5 all property/global coefficientRollingFriction       peratomtypepair 1 0.2
fix             m6 all property/global coefficientRollingViscousDamping peratomtypepair 1 0.3

# pair style
pair_style	gran model hertz tangential history rolling_friction epsd
SURFACE/DEFAULT loaded
HERTZ loaded
TANGENTIAL/HISTORY loaded
EPSD loaded
pair_coeff  	* *

# hearth settings
include         ../DEM/in.hearth_settings
# hearth settings
variable        hearthRadius  equal 0.5     # hearth radius (m)
variable        coreRadius    equal 0.15    # radius of core region (m)
variable        liquidLevel   equal 0.4     # initial liquid level (m) [set in setFieldsDict as well!]
variable        liquidDensity equal 6700.   # liquid density (kg/m3)

# heat/mass transfer settings
variable        particlekInit equal 5000    # particle thermal conductivity during init (W/Km)
variable        particlekRun  equal 40.0    # particle thermal conductivity during run  (W/Km) [sped up! 2.0*20!]
variable        particleCp    equal 870     # particle heat capacity (J/kgK)
variable        Tinlet        equal 1823.15 # particle inlet temperature (K) [set in CFD as well!]
variable        Tinit         equal 1623.15 # initial temperature (K) [set in CFD as well!]
variable        Twall         equal 1423.15 # wall temperature (K) [set in CFD as well!]
variable        rRemove       equal 0.001   # radius at which dissolved particles are removed (m)

# zone definitions
variable        forceZmin     equal 0.70    # lower boundary of force zone (m)
variable        forceZmax     equal 0.80    # upper boundary of force zone (m)
variable        insZmin       equal 0.70    # lower boundary of insertion zone (m)
variable        insZmax       equal 0.80    # upper boundary of insertion zone (m)

region          bedReg        cylinder z 0 0 ${hearthRadius} 0            ${insZmax}
region          bedReg        cylinder z 0 0 0.5 0            ${insZmax}
region          bedReg        cylinder z 0 0 0.5 0            0.8
region          coreReg       cylinder z 0 0 ${coreRadius}   0            ${insZmax} side in
region          coreReg       cylinder z 0 0 0.15   0            ${insZmax} side in
[...]
Max time of 0.166092 on 8 procs for 5 steps with 78592 atoms
LIGGGHTS finished
FDICPCG:  Solving for sSmoothField, Initial residual = 0.835072, Final residual = 8.29025e-05, No Iterations 16
FDICPCG:  Solving for vSmoothFieldx, Initial residual = 0.00018347, Final residual = 7.81221e-08, No Iterations 1
FDICPCG:  Solving for vSmoothFieldy, Initial residual = 0.000168455, Final residual = 1.41656e-07, No Iterations 1
FDICPCG:  Solving for vSmoothFieldz, Initial residual = 0.000193375, Final residual = 3.99338e-08, No Iterations 1

 timeStepFraction() = 1
FDICPCG:  Solving for vSmoothFieldx, Initial residual = 0.833588, Final residual = 7.51075e-05, No Iterations 10
FDICPCG:  Solving for vSmoothFieldy, Initial residual = 0.840521, Final residual = 4.33447e-05, No Iterations 11
FDICPCG:  Solving for vSmoothFieldz, Initial residual = 0.829071, Final residual = 6.46376e-05, No Iterations 10
diagonal:  Solving for vSmoothFieldx, Initial residual = 0, Final residual = 0, No Iterations 0
diagonal:  Solving for vSmoothFieldy, Initial residual = 0, Final residual = 0, No Iterations 0
diagonal:  Solving for vSmoothFieldz, Initial residual = 0, Final residual = 0, No Iterations 0
FDICPCG:  Solving for vSmoothFieldx, Initial residual = 0.820753, Final residual = 4.8947e-05, No Iterations 10
FDICPCG:  Solving for vSmoothFieldy, Initial residual = 0.833524, Final residual = 7.82451e-05, No Iterations 10
FDICPCG:  Solving for vSmoothFieldz, Initial residual = 0.808899, Final residual = 6.47622e-05, No Iterations 9
diagonal:  Solving for vSmoothFieldx, Initial residual = 0, Final residual = 0, No Iterations 0
diagonal:  Solving for vSmoothFieldy, Initial residual = 0, Final residual = 0, No Iterations 0
diagonal:  Solving for vSmoothFieldz, Initial residual = 0, Final residual = 0, No Iterations 0
FDICPCG:  Solving for vSmoothFieldx, Initial residual = 0.843751, Final residual = 4.5337e-05, No Iterations 10
FDICPCG:  Solving for vSmoothFieldy, Initial residual = 0.836327, Final residual = 6.52052e-05, No Iterations 10
FDICPCG:  Solving for vSmoothFieldz, Initial residual = 0.837973, Final residual = 7.96653e-05, No Iterations 8
diagonal:  Solving for vSmoothFieldx, Initial residual = 0, Final residual = 0, No Iterations 0
diagonal:  Solving for vSmoothFieldy, Initial residual = 0, Final residual = 0, No Iterations 0
diagonal:  Solving for vSmoothFieldz, Initial residual = 0, Final residual = 0, No Iterations 0
diagonal:  Solving for sSmoothField, Initial residual = 0, Final residual = 0, No Iterations 0
heatTransferGunn: average part. temp = 1564.06
####################
cellID: 0
kf: 2 J/msK
Cp: 1200 J/kgK
ro: 0.249855 kg/m3
mu: 7.5e-05 Pa s
dp: 0.0199996 m
ep: 0.437269
U : (0.00137751 -0.001416 -0.00913123) m/s
G : (0.000150498 -0.000154704 -0.000997624) kg/m2s
mG: 0.0010207 kg/m2s
Re: 0.272183
Pr: 0.045
JH: 0.259453
h : 2.50668 J/m2sK
Tw: 1473.15 K
Tf: 1482.25 K
dT: -9.10332 K
q : -22.8191 J/m2s
A : 0.00245342 m2
Q : -0.0559848 J/s
####################
cellID: 1
kf: 2 J/msK
Cp: 1200 J/kgK
ro: 0.249818 kg/m3
mu: 7.5e-05 Pa s
dp: 0.0199981 m
ep: 0.440365
U : (4.5998 136.026 -9.40316) m/s
G : (0.506029 14.9644 -1.03445) kg/m2s
mG: 15.0087 kg/m2s
Re: 4001.93
Pr: 0.045
JH: 0.0380694
h : 5408.29 J/m2sK
Tw: 1473.15 K
Tf: 1479.95 K
dT: -6.79899 K
q : -36770.9 J/m2s
A : 0.00245336 m2
Q : -90.2123 J/s
Minimum Particle Weight 0
Minimum Fluid Concentration: -0.0353167
Maximum Fluid Concentration: 244.425
FDICPCG:  Solving for vSmoothFieldx, Initial residual = 0.94151, Final residual = 7.50063e-05, No Iterations 13
FDICPCG:  Solving for vSmoothFieldy, Initial residual = 0.945512, Final residual = 8.21013e-05, No Iterations 12
FDICPCG:  Solving for vSmoothFieldz, Initial residual = 0.945659, Final residual = 8.32959e-05, No Iterations 13
update Ksl.internalField()
TotalForceExp: (0 0 0)
TotalForceImp: (5.73172e+08 -5.84752e+08 1.63176e+09)
MULES: Solving for alpha.iron
iron volume fraction, min, max = 0.375632 -0.215322 1.45131
MULES: Solving for alpha.air
air volume fraction, min, max = 0.597135 -0.616566 1.14164
Phase-sum volume fraction, min, max = 0.972767 0.426592 1.38023
DILUPBiCGStab:  Solving for T, Initial residual = 0.817672, Final residual = 3.53345e-09, No Iterations 5
DILUPBiCGStab:  Solving for C, Initial residual = 0.0277129, Final residual = 6.13032e-09, No Iterations 9
PIMPLE: iteration 1
smoothSolver:  Solving for Ux, Initial residual = 0.49961, Final residual = 3.07318e-09, No Iterations 9
smoothSolver:  Solving for Uy, Initial residual = 0.100105, Final residual = 3.09258e-09, No Iterations 9
smoothSolver:  Solving for Uz, Initial residual = 0.186642, Final residual = 1.48835e-09, No Iterations 9
GAMG:  Solving for p_rgh, Initial residual = 0.195057, Final residual = 1.62425e-07, No Iterations 32
GAMG:  Solving for p_rgh, Initial residual = 0.00067377, Final residual = 5.35525e-09, No Iterations 10
time step continuity errors : sum local = 0.0153281, global = -0.0146018, cumulative = -0.0156225
GAMG:  Solving for p_rgh, Initial residual = 0.014119, Final residual = 1.29726e-08, No Iterations 19
GAMGPCG:  Solving for p_rgh, Initial residual = 0.00120419, Final residual = 9.05107e-09, No Iterations 6
time step continuity errors : sum local = 0.0153286, global = -0.0146025, cumulative = -0.030225
total convective particle-fluid heat flux [W] = -7.45662e+10
total convective particle-fluid mass flux [kg/s] (Eulerian) = 289.167
ExecutionTime = 4.33 s  ClockTime = 4 s

Courant Number mean: 2.71329 max: 389.262

Debugging zero!

Interface Courant Number mean: 2.35595 max: 389.262

Debugging one!

Time = 0.004


 Coupling...
Starting up LIGGGHTS
Executing command: 'delete_atoms region freeboard compress no '
delete_atoms region freeboard compress no 
Deleted 0 atoms, new total = 78592
Executing command: 'set region raceways property/atom Temp ${Tinlet}'
set region raceways property/atom Temp ${Tinlet}
set region raceways property/atom Temp 1823.15
Setting atom values ...
  3 settings made for property/atom
Executing command: 'run 5 pre no post no'
run 5 pre no post no
Step Time Atoms KinEng totalFor avForceP nDelRun 
  107036       0.0035    78592     10717618   -6145.8939  -0.66327361    20.974511 
[4] #0  Foam::error::printStack(Foam::Ostream&)[6] #0  Foam::error::printStack(Foam::Ostream&)[0] #0  Foam::error::printStack(Foam::Ostream&) at ??:?
 at ??:?
[6] #1  Foam::sigFpe::sigHandler(int)[0] #1  Foam::sigFpe::sigHandler(int) at ??:?
[4] #1  Foam::sigFpe::sigHandler(int) at ??:?
[6] #2  ? at ??:?
[0] #2  ? in "/lib/x86_64-linux-gnu/libc.so.6"
[0] #3  ? at ??:?
[4] #2  ? in "/lib/x86_64-linux-gnu/libc.so.6"
[6] #3  ? in "/lib/x86_64-linux-gnu/libm.so.6"
[0] #4  ? in "/lib/x86_64-linux-gnu/libc.so.6"
[4] #3  ? in "/lib/x86_64-linux-gnu/libm.so.6"
[6] #4  ? in "/lib/x86_64-linux-gnu/libm.so.6"
[4] #4  ? at fix_heat_gran_conduction.cpp:?
 at fix_heat_gran_conduction.cpp:?
 at fix_heat_gran_conduction.cpp:?
[6] #5  LAMMPS_NS::FixHeatGranCond::post_force(int)[4] #5  LAMMPS_NS::FixHeatGranCond::post_force(int)[0] #5  LAMMPS_NS::FixHeatGranCond::post_force(int) at ??:?
 at ??:?
 at ??:?
[4] #6  LAMMPS_NS::Modify::post_force(int)[0] #6  LAMMPS_NS::Modify::post_force(int)[6] #6  LAMMPS_NS::Modify::post_force(int) at ??:?
 at ??:?
[0] #7  LAMMPS_NS::Verlet::run(int)[4] #7  LAMMPS_NS::Verlet::run(int) at ??:?
[6] #7  LAMMPS_NS::Verlet::run(int) at ??:?
 at ??:?
[0] #8  LAMMPS_NS::Run::command(int, char**)[4] #8  LAMMPS_NS::Run::command(int, char**) at ??:?
[6] #8  LAMMPS_NS::Run::command(int, char**) at ??:?
 at ??:?
 at ??:?
[0] #9  void LAMMPS_NS::Input::command_creator<LAMMPS_NS::Run>(LAMMPS_NS::LAMMPS*, int, char**)[4] #9  void LAMMPS_NS::Input::command_creator<LAMMPS_NS::Run>(LAMMPS_NS::LAMMPS*, int, char**)[6] #9  void LAMMPS_NS::Input::command_creator<LAMMPS_NS::Run>(LAMMPS_NS::LAMMPS*, int, char**) at ??:?
[0] #10  LAMMPS_NS::Input::execute_command() at ??:?
[6] #10  LAMMPS_NS::Input::execute_command() at ??:?
[4] #10  LAMMPS_NS::Input::execute_command() at ??:?
[6] #11  LAMMPS_NS::Input::one(char const*) at ??:?
 at ??:?
[4] #11  LAMMPS_NS::Input::one(char const*)[0] #11  LAMMPS_NS::Input::one(char const*) at ??:?
[6] #12  Foam::twoWayMPI::couple(int) at ??:?
[0] #12  Foam::twoWayMPI::couple(int) at ??:?
[4] #12  Foam::twoWayMPI::couple(int) at ??:?
[4] #13  Foam::cfdemCloud::evolve(Foam::GeometricField<double, Foam::fvPatchField, Foam::volMesh>&, Foam::GeometricField<Foam::Vector<double>, Foam::fvPatchField, Foam::volMesh>&, Foam::GeometricField<Foam::Vector<double>, Foam::fvPatchField, Foam::volMesh>&) at ??:?
[0] #13  Foam::cfdemCloud::evolve(Foam::GeometricField<double, Foam::fvPatchField, Foam::volMesh>&, Foam::GeometricField<Foam::Vector<double>, Foam::fvPatchField, Foam::volMesh>&, Foam::GeometricField<Foam::Vector<double>, Foam::fvPatchField, Foam::volMesh>&) at ??:?
[6] #13  Foam::cfdemCloud::evolve(Foam::GeometricField<double, Foam::fvPatchField, Foam::volMesh>&, Foam::GeometricField<Foam::Vector<double>, Foam::fvPatchField, Foam::volMesh>&, Foam::GeometricField<Foam::Vector<double>, Foam::fvPatchField, Foam::volMesh>&) at ??:?
[0] #14  Foam::cfdemCloudEnergy::evolve(Foam::GeometricField<double, Foam::fvPatchField, Foam::volMesh>&, Foam::GeometricField<Foam::Vector<double>, Foam::fvPatchField, Foam::volMesh>&, Foam::GeometricField<Foam::Vector<double>, Foam::fvPatchField, Foam::volMesh>&) at ??:?
[4] #14  Foam::cfdemCloudEnergy::evolve(Foam::GeometricField<double, Foam::fvPatchField, Foam::volMesh>&, Foam::GeometricField<Foam::Vector<double>, Foam::fvPatchField, Foam::volMesh>&, Foam::GeometricField<Foam::Vector<double>, Foam::fvPatchField, Foam::volMesh>&) at ??:?
[6] #14  Foam::cfdemCloudEnergy::evolve(Foam::GeometricField<double, Foam::fvPatchField, Foam::volMesh>&, Foam::GeometricField<Foam::Vector<double>, Foam::fvPatchField, Foam::volMesh>&, Foam::GeometricField<Foam::Vector<double>, Foam::fvPatchField, Foam::volMesh>&) at ??:?
[0] #15   at ??:?
[4] #15   at ??:?
[6] #15  mainmainmain in "/home/ht45454/CFDEM/CFDEMcoupling-24.01-4.x/platforms/linux64GccDPInt32Opt/bin/cfdemSolverMultiphaseScalar"
 in "/home/ht45454/CFDEM/CFDEMcoupling-24.01-4.x/platforms/linux64GccDPInt32Opt/bin/cfdemSolv[0] #16  ?erMultiphaseScalar"
[4] #16  ? in "/home/ht45454/CFDEM/CFDEMcoupling-24.01-4.x/platforms/linux64GccDPInt32Opt/bin/cfdemSolverMultiphaseScalar"
[6] #16  ? in "/lib/x86_64-linux-gnu/libc.so.6"
[4] #17  __libc_start_main in "/lib/x86_64-linux-gnu/libc.so.6"
[0] #17  __libc_start_main in "/lib/x86_64-linux-gnu/libc.so.6"
[6] #17  __libc_start_main in "/lib/x86_64-linux-gnu/libc.so.6"
[4] #18   in "/lib/x86_64-linux-gnu/libc.so.6"
[0] #18   in "/lib/x86_64-linux-gnu/libc.so.6"
[6] #18  ??? in "/home/ht45454/CFDEM/CFDEMcoupling-24.01-4.x/platforms/linux64GccDPInt32Opt/bin/cfdemSolverMultiphaseScalar"
[TUE035485:01612] *** Process received signal ***
[TUE035485:01612] Signal: Floating point exception (8)
[TUE035485:01612] Signal code:  (-6)
[TUE035485:01612] Failing at address: 0x3e80000064c
[TUE035485:01612] [ 0] /lib/x86_64-linux-gnu/libc.so.6(+0x45330)[0x7fb4fc0b3330]
[TUE035485:01612] [ 1] /lib/x86_64-linux-gnu/libc.so.6(pthread_kill+0x11c)[0x7fb4fc10cb2c]
[TUE035485:01612] [ 2] /lib/x86_64-linux-gnu/libc.so.6(gsignal+0x1e)[0x7fb4fc0b327e]
[TUE035485:01612] [ 3] /lib/x86_64-linux-gnu/libc.so.6(+0x45330)[0x7fb4fc0b3330]
[TUE035485:01612] [ 4] /lib/x86_64-linux-gnu/libm.so.6(+0x153a4)[0x7fb4fc2c53a4]
[TUE035485:01612] [ 5]  in "/home/ht45454/CFDEM/CFDEMcoupling-24.01-4.x/platforms/linux64GccDPInt32Opt/bin/cfdemSolverMultiphaseScalar"
[TUE035485:01616] *** Process received signal ***
[TUE035485:01616] Signal: Floating point exception (8)
[TUE035485:01616] Signal code:  (-6)
[TUE035485:01616] Failing at address: 0x3e800000650
[TUE035485:01616] [ 0] /lib/x86_64-linux-gnu/libc.so.6(+0x45330)[0x7f83303e2330]
[TUE035485:01616] [ 1] /lib/x86_64-linux-gnu/libc.so.6(pthread_kill+0x11c)[0x7f833043bb2c]
[TUE035485:01616] [ 2] /lib/x86_64-linux-gnu/libc.so.6(gsignal+0x1e)[0x7f83303e227e]
[TUE035485:01616] [ 3] /lib/x86_64-linux-gnu/libc.so.6(+0x45330)[0x7f83303e2330]
[TUE035485:01616] [ 4] /lib/x86_64-linux-gnu/libm.so.6(+0x153a4)[0x7f83305f43a4]
[TUE035485:01616] [ 5] /home/ht45454/CFDEM/LIGGGHTS/src-build/libliggghts.so(+0x109fe41)[0x7fb4f9658e41]
[TUE035485:01612] [ 6] /home/ht45454/CFDEM/LIGGGHTS/src-build/libliggghts.so(+0x109fe41)[0x7f832d987e41]
[TUE035485:01616] [ 6] /home/ht45454/CFDEM/LIGGGHTS/src-build/libliggghts.so(_ZN9LAMMPS_NS15FixHeatGranCond10post_forceEi+0xb2)[0x7fb4f96596d2]
[TUE035485:01612] [ 7] /home/ht45454/CFDEM/LIGGGHTS/src-build/libliggghts.so(_ZN9LAMMPS_NS15FixHeatGranCond10post_forceEi+0xb2)[0x7f832d9886d2]
[TUE035485:01616] [ 7]  in "/home/ht45454/CFDEM/CFDEMcoupling-24.01-4.x/platforms/linux64GccDPInt32Opt/bin/cfdemSolverMultiphaseScalar"
[TUE035485:01618] *** Process received signal ***
[TUE035485:01618] Signal: Floating point exception (8)
[TUE035485:01618] Signal code:  (-6)
[TUE035485:01618] Failing at address: 0x3e800000652
[TUE035485:01618] [ 0] /lib/x86_64-linux-gnu/libc.so.6(+0x45330)[0x7f15725b4330]
[TUE035485:01618] [ 1] /lib/x86_64-linux-gnu/libc.so.6(pthread_kill+0x11c)[0x7f157260db2c]
[TUE035485:01618] [ 2] /lib/x86_64-linux-gnu/libc.so.6(gsignal+0x1e)[0x7f15725b427e]
[TUE035485:01618] [ 3] /lib/x86_64-linux-gnu/libc.so.6(+0x45330)[0x7f15725b4330]
[TUE035485:01618] [ 4] /lib/x86_64-linux-gnu/libm.so.6(+0x153a4)[0x7f15727c63a4]
[TUE035485:01618] [ 5] /home/ht45454/CFDEM/LIGGGHTS/src-build/libliggghts.so(_ZN9LAMMPS_NS6Modify10post_forceEi+0x57)[0x7f832ed62fc7]
[TUE035485:01616] [ 8] /home/ht45454/CFDEM/LIGGGHTS/src-build/libliggghts.so(_ZN9LAMMPS_NS6Modify10post_forceEi+0x57)[0x7fb4faa33fc7]
[TUE035485:01612] [ 8] /home/ht45454/CFDEM/LIGGGHTS/src-build/libliggghts.so(+0x109fe41)[0x7f156fb59e41]
[TUE035485:01618] [ 6] /home/ht45454/CFDEM/LIGGGHTS/src-build/libliggghts.so(_ZN9LAMMPS_NS6Verlet3runEi+0x3e2)[0x7f832eec51f2]
[TUE035485:01616] [ 9] /home/ht45454/CFDEM/LIGGGHTS/src-build/libliggghts.so(_ZN9LAMMPS_NS15FixHeatGranCond10post_forceEi+0xb2)[0x7f156fb5a6d2]
[TUE035485:01618] [ 7] /home/ht45454/CFDEM/LIGGGHTS/src-build/libliggghts.so(_ZN9LAMMPS_NS6Verlet3runEi+0x3e2)[0x7fb4fab961f2]
[TUE035485:01612] [ 9] /home/ht45454/CFDEM/LIGGGHTS/src-build/libliggghts.so(_ZN9LAMMPS_NS3Run7commandEiPPc+0x2b0)[0x7f832ee60e00]
[TUE035485:01616] [10] /home/ht45454/CFDEM/LIGGGHTS/src-build/libliggghts.so(_ZN9LAMMPS_NS3Run7commandEiPPc+0x2b0)[0x7fb4fab31e00]
/home/ht45454/CFDEM/LIGGGHTS/src-build/libliggghts.so(_ZN9LAMMPS_NS6Modify10post_forceEi+0x57)[0x7f1570f34fc7]
[TUE035485:01618] [ 8] [TUE035485:01612] [10] /home/ht45454/CFDEM/LIGGGHTS/src-build/libliggghts.so(_ZN9LAMMPS_NS5Input15command_creatorINS_3RunEEEvPNS_6LAMMPSEiPPc+0x42)[0x7f832ed1f2c2]
[TUE035485:01616] [11] /home/ht45454/CFDEM/LIGGGHTS/src-build/libliggghts.so(_ZN9LAMMPS_NS6Verlet3runEi+0x3e2)[0x7f15710971f2]
[TUE035485:01618] [ 9] /home/ht45454/CFDEM/LIGGGHTS/src-build/libliggghts.so(_ZN9LAMMPS_NS5Input15command_creatorINS_3RunEEEvPNS_6LAMMPSEiPPc+0x42)[0x7fb4fa9f02c2]
[TUE035485:01612] [11] /home/ht45454/CFDEM/LIGGGHTS/src-build/libliggghts.so(_ZN9LAMMPS_NS5Input15execute_commandEv+0x820)[0x7f832ed1d2a0]
[TUE035485:01616] [12] /home/ht45454/CFDEM/LIGGGHTS/src-build/libliggghts.so(_ZN9LAMMPS_NS5Input15execute_commandEv+0x820)[0x7fb4fa9ee2a0]
[TUE035485:01612] [12] /home/ht45454/CFDEM/LIGGGHTS/src-build/libliggghts.so(_ZN9LAMMPS_NS5Input3oneEPKc+0x89)[0x7f832ed1de09]
[TUE035485:01616] [13] /home/ht45454/CFDEM/CFDEMcoupling-24.01-4.x/platforms/linux64GccDPInt32Opt/lib/liblagrangianCFDEM-24.01-4.x.so(_ZN4Foam9twoWayMPI6coupleEi+0x8d3)[0x7f8331714273]
[TUE035485:01616] [14] /home/ht45454/CFDEM/CFDEMcoupling-24.01-4.x/platforms/linux64GccDPInt32Opt/lib/liblagrangianCFDEM-24.01-4.x.so(_ZN4Foam10cfdemCloud6evolveERNS_14GeometricFieldIdNS_12fvPatchFieldENS_7volMeshEEERNS1_INS_6VectorIdEES2_S3_EES9_+0x7d5)[0x7f83313f9ed5]
[TUE035485:01616] [15] /home/ht45454/CFDEM/LIGGGHTS/src-build/libliggghts.so(_ZN9LAMMPS_NS3Run7commandEiPPc+0x2b0)[0x7f1571032e00]
[TUE035485:01618] [10] /home/ht45454/CFDEM/CFDEMcoupling-24.01-4.x/platforms/linux64GccDPInt32Opt/lib/liblagrangianCFDEM-24.01-4.x.so(_ZN4Foam16cfdemCloudEnergy6evolveERNS_14GeometricFieldIdNS_12fvPatchFieldENS_7volMeshEEERNS1_INS_6VectorIdEES2_S3_EES9_+0x2a)[0x7f833145c89a]
[TUE035485:01616] [16] cfdemSolverMultiphaseScalar(main+0x4d2f)[0x55f712b4ceef]
[TUE035485:01616] [17] /lib/x86_64-linux-gnu/libc.so.6(+0x2a1ca)[0x7f83303c71ca]
[TUE035485:01616] [18] /lib/x86_64-linux-gnu/libc.so.6(__libc_start_main+0x8b)[0x7f83303c728b]
[TUE035485:01616] [19] cfdemSolverMultiphaseScalar(+0x41875)[0x55f712b53875]
[TUE035485:01616] *** End of error message ***
/home/ht45454/CFDEM/LIGGGHTS/src-build/libliggghts.so(_ZN9LAMMPS_NS5Input3oneEPKc+0x89)[0x7fb4fa9eee09]
[TUE035485:01612] [13] /home/ht45454/CFDEM/CFDEMcoupling-24.01-4.x/platforms/linux64GccDPInt32Opt/lib/liblagrangianCFDEM-24.01-4.x.so(_ZN4Foam9twoWayMPI6coupleEi+0x8d3)[0x7fb4fd3e5273]
[TUE035485:01612] [14] /home/ht45454/CFDEM/CFDEMcoupling-24.01-4.x/platforms/linux64GccDPInt32Opt/lib/liblagrangianCFDEM-24.01-4.x.so(_ZN4Foam10cfdemCloud6evolveERNS_14GeometricFieldIdNS_12fvPatchFieldENS_7volMeshEEERNS1_INS_6VectorIdEES2_S3_EES9_+0x7d5)[0x7fb4fd0caed5]
[TUE035485:01612] [15] /home/ht45454/CFDEM/CFDEMcoupling-24.01-4.x/platforms/linux64GccDPInt32Opt/lib/liblagrangianCFDEM-24.01-4.x.so(_ZN4Foam16cfdemCloudEnergy6evolveERNS_14GeometricFieldIdNS_12fvPatchFieldENS_7volMeshEEERNS1_INS_6VectorIdEES2_S3_EES9_+0x2a)[0x7fb4fd12d89a]
[TUE035485:01612] [16] cfdemSolverMultiphaseScalar(main+0x4d2f)[0x564f59faceef]
[TUE035485:01612] [17] /lib/x86_64-linux-gnu/libc.so.6(+0x2a1ca)[0x7fb4fc0981ca]
[TUE035485:01612] [18] /lib/x86_64-linux-gnu/libc.so.6(__libc_start_main+0x8b)[0x7fb4fc09828b]
[TUE035485:01612] [19] cfdemSolverMultiphaseScalar(+0x41875)[0x564f59fb3875]
[TUE035485:01612] *** End of error message ***
/home/ht45454/CFDEM/LIGGGHTS/src-build/libliggghts.so(_ZN9LAMMPS_NS5Input15command_creatorINS_3RunEEEvPNS_6LAMMPSEiPPc+0x42)[0x7f1570ef12c2]
[TUE035485:01618] [11] /home/ht45454/CFDEM/LIGGGHTS/src-build/libliggghts.so(_ZN9LAMMPS_NS5Input15execute_commandEv+0x820)[0x7f1570eef2a0]
[TUE035485:01618] [12] /home/ht45454/CFDEM/LIGGGHTS/src-build/libliggghts.so(_ZN9LAMMPS_NS5Input3oneEPKc+0x89)[0x7f1570eefe09]
[TUE035485:01618] [13] /home/ht45454/CFDEM/CFDEMcoupling-24.01-4.x/platforms/linux64GccDPInt32Opt/lib/liblagrangianCFDEM-24.01-4.x.so(_ZN4Foam9twoWayMPI6coupleEi+0x8d3)[0x7f15738e6273]
[TUE035485:01618] [14] /home/ht45454/CFDEM/CFDEMcoupling-24.01-4.x/platforms/linux64GccDPInt32Opt/lib/liblagrangianCFDEM-24.01-4.x.so(_ZN4Foam10cfdemCloud6evolveERNS_14GeometricFieldIdNS_12fvPatchFieldENS_7volMeshEEERNS1_INS_6VectorIdEES2_S3_EES9_+0x7d5)[0x7f15735cbed5]
[TUE035485:01618] [15] /home/ht45454/CFDEM/CFDEMcoupling-24.01-4.x/platforms/linux64GccDPInt32Opt/lib/liblagrangianCFDEM-24.01-4.x.so(_ZN4Foam16cfdemCloudEnergy6evolveERNS_14GeometricFieldIdNS_12fvPatchFieldENS_7volMeshEEERNS1_INS_6VectorIdEES2_S3_EES9_+0x2a)[0x7f157362e89a]
[TUE035485:01618] [16] cfdemSolverMultiphaseScalar(main+0x4d2f)[0x555b9f7d7eef]
[TUE035485:01618] [17] /lib/x86_64-linux-gnu/libc.so.6(+0x2a1ca)[0x7f15725991ca]
[TUE035485:01618] [18] /lib/x86_64-linux-gnu/libc.so.6(__libc_start_main+0x8b)[0x7f157259928b]
[TUE035485:01618] [19] cfdemSolverMultiphaseScalar(+0x41875)[0x555b9f7de875]
[TUE035485:01618] *** End of error message ***
--------------------------------------------------------------------------
Primary job  terminated normally, but 1 process returned
a non-zero exit code. Per user-direction, the job has been aborted.
--------------------------------------------------------------------------
--------------------------------------------------------------------------
mpirun noticed that process rank 4 with PID 0 on node TUE035485 exited on signal 8 (Floating point exception).
--------------------------------------------------------------------------
